<?xml version="1.0" encoding="UTF-8"?>

<!-- generated on 2025-01-16 11:32:25 by Eclipse SUMO GUI Version 1.19.0
-->

<configuration xmlns:xsi="http://www.w3.org/2001/XMLSchema-instance" xsi:noNamespaceSchemaLocation="http://sumo.dlr.de/xsd/sumoConfiguration.xsd">

    <input>
        <net-file value="queens.net.xml"/>  
    </input>

</configuration>
