<?xml version="1.0" encoding="UTF-8"?>

<!-- generated on 2025-02-22 15:11:40.367268 by osmWebWizard.py v1_21_0+0000-d7b3b481c43
<configuration>
    <net-file value="C:\Users\v5run\2025-02-22-15-11-26\osm.net.xml.gz"/>
    <output-trip-file value="C:\Users\v5run\2025-02-22-15-11-26\osm.passenger.trips.xml"/>
    <route-file value="C:\Users\v5run\2025-02-22-15-11-26\osm.passenger.rou.xml"/>
    <prefix value="veh"/>
    <trip-attributes value="departLane=&quot;best&quot;"/>
    <fringe-start-attributes value="departSpeed=&quot;max&quot;"/>
    <vehicle-class value="passenger"/>
    <lanes value="True"/>
    <fringe-factor value="5"/>
    <allow-fringe.min-length value="1000.0"/>
    <via-edge-types value="highway.motorway,highway.motorway_link,highway.trunk_link,highway.primary_link,highway.secondary_link,highway.tertiary_link"/>
    <min-distance value="300.0"/>
    <min-distance.fringe value="10.0"/>
    <remove-loops value="True"/>
    <validate value="True"/>
    <insertion-density value="12.0"/>
</configuration>
-->

<!-- generated on 2025-02-22 15:11:40 by Eclipse SUMO duarouter Version 1.21.0
<duarouterConfiguration xmlns:xsi="http://www.w3.org/2001/XMLSchema-instance" xsi:noNamespaceSchemaLocation="http://sumo.dlr.de/xsd/duarouterConfiguration.xsd">

    <input>
        <net-file value="C:\Users\v5run\2025-02-22-15-11-26\osm.net.xml.gz"/>
        <route-files value="C:\Users\v5run\2025-02-22-15-11-26\osm.passenger.trips.xml"/>
    </input>

    <output>
        <output-file value="C:\Users\v5run\2025-02-22-15-11-26\osm.passenger.trips.xml.tmp"/>
        <alternatives-output value="NUL"/>
        <write-trips value="true"/>
    </output>

    <processing>
        <remove-loops value="true"/>
    </processing>

    <time>
        <begin value="0.0"/>
        <end value="3600.0"/>
    </time>

    <report>
        <no-warnings value="true"/>
        <ignore-errors value="true"/>
        <no-step-log value="true"/>
    </report>

</duarouterConfiguration>
-->

<routes xmlns:xsi="http://www.w3.org/2001/XMLSchema-instance" xsi:noNamespaceSchemaLocation="http://sumo.dlr.de/xsd/routes_file.xsd">
    <vType id="veh_passenger" vClass="passenger"/>
    <trip id="veh0" type="veh_passenger" depart="0.00" departLane="best" from="-265141045#0" to="-1262522136#1"/>
    <trip id="veh1" type="veh_passenger" depart="2.36" departLane="best" departSpeed="max" from="4301735#0" to="-33910430"/>
    <trip id="veh2" type="veh_passenger" depart="4.71" departLane="best" departSpeed="max" from="33651795" to="-30979256#1"/>
    <trip id="veh3" type="veh_passenger" depart="7.07" departLane="best" from="468828538#4" to="-216566736#1"/>
    <trip id="veh4" type="veh_passenger" depart="9.42" departLane="best" departSpeed="max" from="112557198#0" to="1262538010#0"/>
    <trip id="veh5" type="veh_passenger" depart="11.78" departLane="best" from="33910432#0" to="-204318936#2"/>
    <trip id="veh6" type="veh_passenger" depart="14.13" departLane="best" departSpeed="max" from="-124690743#1" to="33023078#0"/>
    <trip id="veh7" type="veh_passenger" depart="16.49" departLane="best" from="-277877819#4" to="22738843#0"/>
    <trip id="veh8" type="veh_passenger" depart="18.85" departLane="best" from="-33910432#5" to="24263685#2"/>
    <trip id="veh9" type="veh_passenger" depart="21.20" departLane="best" departSpeed="max" from="4301739#0" to="-10390228#1"/>
    <trip id="veh10" type="veh_passenger" depart="23.56" departLane="best" from="-4301733#1" to="33002814"/>
    <trip id="veh11" type="veh_passenger" depart="25.91" departLane="best" from="-521697613" to="-265141046#1"/>
    <trip id="veh12" type="veh_passenger" depart="28.27" departLane="best" departSpeed="max" from="58869730#0" to="-5213460#5"/>
    <trip id="veh13" type="veh_passenger" depart="30.62" departLane="best" from="216566629#2" to="-220918439#1"/>
    <trip id="veh14" type="veh_passenger" depart="32.98" departLane="best" departSpeed="max" from="45474173#0" to="252080341#0"/>
    <trip id="veh15" type="veh_passenger" depart="35.34" departLane="best" from="-4301735#2" to="445862068#0"/>
    <trip id="veh16" type="veh_passenger" depart="37.69" departLane="best" from="222151618#6" to="69844662#0"/>
    <trip id="veh17" type="veh_passenger" depart="40.05" departLane="best" from="-693813454#5" to="-458263066#2"/>
    <trip id="veh18" type="veh_passenger" depart="42.40" departLane="best" departSpeed="max" from="439423519#0" to="265141045#1"/>
    <trip id="veh19" type="veh_passenger" depart="44.76" departLane="best" from="4651979#5" to="234365457"/>
    <trip id="veh20" type="veh_passenger" depart="47.11" departLane="best" from="30979827#0" to="-126742590#4"/>
    <trip id="veh21" type="veh_passenger" depart="49.47" departLane="best" departSpeed="max" from="-34551388" to="-45473640#3"/>
    <trip id="veh22" type="veh_passenger" depart="51.82" departLane="best" departSpeed="max" from="-20062383#2" to="-350674974#3"/>
    <trip id="veh23" type="veh_passenger" depart="54.18" departLane="best" from="-220918438#2" to="445695121"/>
    <trip id="veh24" type="veh_passenger" depart="56.54" departLane="best" departSpeed="max" from="-686198241#1" to="-33025565#5"/>
    <trip id="veh25" type="veh_passenger" depart="58.89" departLane="best" departSpeed="max" from="-4268288#2" to="5686835#0"/>
    <trip id="veh26" type="veh_passenger" depart="61.25" departLane="best" from="277877819#0" to="25757063#0"/>
    <trip id="veh27" type="veh_passenger" depart="63.60" departLane="best" from="296783428#3" to="34551570#0"/>
    <trip id="veh28" type="veh_passenger" depart="65.96" departLane="best" from="277878927#0" to="-8101706#1"/>
    <trip id="veh29" type="veh_passenger" depart="68.31" departLane="best" departSpeed="max" from="8103401#0" to="28823581#5"/>
    <trip id="veh30" type="veh_passenger" depart="70.67" departLane="best" from="-225299890#1" to="30986762#4"/>
    <trip id="veh31" type="veh_passenger" depart="73.03" departLane="best" from="-45473333#0" to="4212274#0"/>
    <trip id="veh32" type="veh_passenger" depart="75.38" departLane="best" departSpeed="max" from="-34551388" to="-1262827082"/>
    <trip id="veh33" type="veh_passenger" depart="77.74" departLane="best" from="4652071#3" to="4321248#0"/>
    <trip id="veh34" type="veh_passenger" depart="80.09" departLane="best" from="-33025451#1" to="5686883#0"/>
    <trip id="veh35" type="veh_passenger" depart="82.45" departLane="best" from="286661014#1" to="10070563#5"/>
    <trip id="veh36" type="veh_passenger" depart="84.80" departLane="best" from="5090561#0" to="-126742589#1"/>
    <trip id="veh37" type="veh_passenger" depart="87.16" departLane="best" departSpeed="max" from="-4268288#2" to="-4212256#5"/>
    <trip id="veh38" type="veh_passenger" depart="89.52" departLane="best" from="22758492#0" to="-4301721#1"/>
    <trip id="veh39" type="veh_passenger" depart="91.87" departLane="best" from="232846229" to="5078771#2"/>
    <trip id="veh40" type="veh_passenger" depart="94.23" departLane="best" departSpeed="max" from="-799520626#3" to="-33651799#5"/>
    <trip id="veh41" type="veh_passenger" depart="96.58" departLane="best" from="888762239#0" to="-216566628"/>
    <trip id="veh42" type="veh_passenger" depart="98.94" departLane="best" from="-216566629#0" to="-1290816547#1"/>
    <trip id="veh43" type="veh_passenger" depart="101.29" departLane="best" from="-222151618#9" to="265141046#0"/>
    <trip id="veh44" type="veh_passenger" depart="103.65" departLane="best" departSpeed="max" from="4298417#0" to="1208060641"/>
    <trip id="veh45" type="veh_passenger" depart="106.01" departLane="best" from="-133596276#8" to="-8101706#1"/>
    <trip id="veh46" type="veh_passenger" depart="108.36" departLane="best" from="847811567#0" to="-222151618#5"/>
    <trip id="veh47" type="veh_passenger" depart="110.72" departLane="best" from="61760482#0" to="4652070#0"/>
    <trip id="veh48" type="veh_passenger" depart="113.07" departLane="best" from="-1168168596#3" to="34545779#0"/>
    <trip id="veh49" type="veh_passenger" depart="115.43" departLane="best" from="30327576#5" to="22241344#0-AddedOffRampEdge"/>
    <trip id="veh50" type="veh_passenger" depart="117.78" departLane="best" departSpeed="max" from="-4268288#2" to="28823581#7"/>
    <trip id="veh51" type="veh_passenger" depart="120.14" departLane="best" from="223996457#1" to="1262522137#0"/>
    <trip id="veh52" type="veh_passenger" depart="122.50" departLane="best" from="1263648105#0" to="61760483#0"/>
    <trip id="veh53" type="veh_passenger" depart="124.85" departLane="best" departSpeed="max" from="4652040#0" to="-4301721#1"/>
    <trip id="veh54" type="veh_passenger" depart="127.21" departLane="best" from="204318935#0" to="-30327576#6"/>
    <trip id="veh55" type="veh_passenger" depart="129.56" departLane="best" departSpeed="max" from="5090531#0" to="4676029#0"/>
    <trip id="veh56" type="veh_passenger" depart="131.92" departLane="best" from="-456565900#1" to="28823581#3"/>
    <trip id="veh57" type="veh_passenger" depart="134.27" departLane="best" from="242973006#0" to="265141045#1"/>
    <trip id="veh58" type="veh_passenger" depart="136.63" departLane="best" from="381084334#0" to="223420013#0"/>
    <trip id="veh59" type="veh_passenger" depart="138.98" departLane="best" from="4212259#0" to="222151618#8"/>
    <trip id="veh60" type="veh_passenger" depart="141.34" departLane="best" from="-10070562#1" to="4847551#0"/>
    <trip id="veh61" type="veh_passenger" depart="143.70" departLane="best" from="1183691070#3" to="553564817#0"/>
    <trip id="veh62" type="veh_passenger" depart="146.05" departLane="best" from="4652064#0" to="45473333#1"/>
    <trip id="veh63" type="veh_passenger" depart="148.41" departLane="best" from="4651997#0" to="133596276#16"/>
    <trip id="veh64" type="veh_passenger" depart="150.76" departLane="best" from="-216566625" to="13741293#0"/>
    <trip id="veh65" type="veh_passenger" depart="153.12" departLane="best" departSpeed="max" from="-1347508055#1" to="4000041#0"/>
    <trip id="veh66" type="veh_passenger" depart="155.47" departLane="best" from="4000041#0" to="232846229"/>
    <trip id="veh67" type="veh_passenger" depart="157.83" departLane="best" from="1292415001#0" to="22758494#0"/>
    <trip id="veh68" type="veh_passenger" depart="160.19" departLane="best" departSpeed="max" from="-4268288#2" to="4676029#0"/>
    <trip id="veh69" type="veh_passenger" depart="162.54" departLane="best" departSpeed="max" from="112557198#0" to="-33651797#1"/>
    <trip id="veh70" type="veh_passenger" depart="164.90" departLane="best" from="222151620" to="34614459#0"/>
    <trip id="veh71" type="veh_passenger" depart="167.25" departLane="best" from="-33023072#3" to="-4652040#3"/>
    <trip id="veh72" type="veh_passenger" depart="169.61" departLane="best" from="847811567#0" to="-301630104#1"/>
    <trip id="veh73" type="veh_passenger" depart="171.96" departLane="best" from="124460671#0" to="-216568113"/>
    <trip id="veh74" type="veh_passenger" depart="174.32" departLane="best" from="-229439554#2" to="-33910430"/>
    <trip id="veh75" type="veh_passenger" depart="176.68" departLane="best" from="-5213459#2" to="5686884#0"/>
    <trip id="veh76" type="veh_passenger" depart="179.03" departLane="best" departSpeed="max" from="-34551388" to="-33910430"/>
    <trip id="veh77" type="veh_passenger" depart="181.39" departLane="best" departSpeed="max" from="-13741293#6" to="-277877819#2"/>
    <trip id="veh78" type="veh_passenger" depart="183.74" departLane="best" departSpeed="max" from="-34551388" to="5090524#0"/>
    <trip id="veh79" type="veh_passenger" depart="186.10" departLane="best" from="458503768#0" to="-204318936#2"/>
    <trip id="veh80" type="veh_passenger" depart="188.45" departLane="best" from="-35155499#3" to="30679706#0"/>
    <trip id="veh81" type="veh_passenger" depart="190.81" departLane="best" from="-33025565#5" to="233396011"/>
    <trip id="veh82" type="veh_passenger" depart="193.17" departLane="best" from="5686820#0" to="232846228#0"/>
    <trip id="veh83" type="veh_passenger" depart="195.52" departLane="best" from="1290816545" to="4281321#2"/>
    <trip id="veh84" type="veh_passenger" depart="197.88" departLane="best" from="-4301735#2" to="-310302228#1"/>
    <trip id="veh86" type="veh_passenger" depart="202.59" departLane="best" departSpeed="max" from="112557198#0" to="1290816549#0"/>
    <trip id="veh87" type="veh_passenger" depart="204.94" departLane="best" from="33025456" to="30759215#0"/>
    <trip id="veh88" type="veh_passenger" depart="207.30" departLane="best" from="737177261#0" to="-220918701#3"/>
    <trip id="veh89" type="veh_passenger" depart="209.66" departLane="best" from="-847811567#1" to="-542543899#3"/>
    <trip id="veh90" type="veh_passenger" depart="212.01" departLane="best" from="4651979#5" to="-4212261#8"/>
    <trip id="veh91" type="veh_passenger" depart="214.37" departLane="best" from="-30979258#1" to="1263682737#0"/>
    <trip id="veh92" type="veh_passenger" depart="216.72" departLane="best" departSpeed="max" from="112557198#0" to="-445695122"/>
    <trip id="veh93" type="veh_passenger" depart="219.08" departLane="best" from="-381084333#2" to="547845030#0"/>
    <trip id="veh94" type="veh_passenger" depart="221.43" departLane="best" from="-1262522136#1" to="4652071#0"/>
    <trip id="veh95" type="veh_passenger" depart="223.79" departLane="best" departSpeed="max" from="223996457#0" to="-1323693938"/>
    <trip id="veh96" type="veh_passenger" depart="226.14" departLane="best" from="9916086#0" to="45475659#0"/>
    <trip id="veh97" type="veh_passenger" depart="228.50" departLane="best" departSpeed="max" from="6147260#0" to="553564817#0"/>
    <trip id="veh98" type="veh_passenger" depart="230.86" departLane="best" departSpeed="max" from="45475658#0" to="-286661014#0"/>
    <trip id="veh99" type="veh_passenger" depart="233.21" departLane="best" from="145658032#0" to="-33651797#1"/>
    <trip id="veh100" type="veh_passenger" depart="235.57" departLane="best" from="83748395#0" to="133596276#0"/>
    <trip id="veh101" type="veh_passenger" depart="237.92" departLane="best" departSpeed="max" from="-695753526#2" to="7912474#0"/>
    <trip id="veh102" type="veh_passenger" depart="240.28" departLane="best" from="-1208975720#1" to="1208916258#0"/>
    <trip id="veh103" type="veh_passenger" depart="242.63" departLane="best" departSpeed="max" from="58869730#0" to="900926531#0"/>
    <trip id="veh104" type="veh_passenger" depart="244.99" departLane="best" departSpeed="max" from="22479015#0" to="34081173#0"/>
    <trip id="veh105" type="veh_passenger" depart="247.35" departLane="best" from="-265141045#8" to="-45475658#1"/>
    <trip id="veh106" type="veh_passenger" depart="249.70" departLane="best" departSpeed="max" from="6147260#0" to="237887998"/>
    <trip id="veh107" type="veh_passenger" depart="252.06" departLane="best" from="22241344#0-AddedOffRampEdge" to="35159933#0"/>
    <trip id="veh108" type="veh_passenger" depart="254.41" departLane="best" from="216566625" to="4652015#0"/>
    <trip id="veh110" type="veh_passenger" depart="259.12" departLane="best" departSpeed="max" from="-20062383#2" to="30979256#0"/>
    <trip id="veh111" type="veh_passenger" depart="261.48" departLane="best" departSpeed="max" from="239506162" to="30759215#2"/>
    <trip id="veh112" type="veh_passenger" depart="263.84" departLane="best" from="-34551570#3" to="-228017309#3"/>
    <trip id="veh113" type="veh_passenger" depart="266.19" departLane="best" from="4674854#0" to="-4212256#5"/>
    <trip id="veh114" type="veh_passenger" depart="268.55" departLane="best" from="-237888211#1" to="265141045#1"/>
    <trip id="veh115" type="veh_passenger" depart="270.90" departLane="best" from="1110574524#0" to="24221125#0"/>
    <trip id="veh116" type="veh_passenger" depart="273.26" departLane="best" from="216568114" to="5686820#0"/>
    <trip id="veh117" type="veh_passenger" depart="275.61" departLane="best" from="-33023078#1" to="-33910432#5"/>
    <trip id="veh118" type="veh_passenger" depart="277.97" departLane="best" from="-35155499#3" to="10070563#5"/>
    <trip id="veh119" type="veh_passenger" depart="280.33" departLane="best" from="30326730#2" to="-45475658#5"/>
    <trip id="veh120" type="veh_passenger" depart="282.68" departLane="best" from="-4674752#3" to="35159936#0"/>
    <trip id="veh121" type="veh_passenger" depart="285.04" departLane="best" departSpeed="max" from="-13741293#6" to="30326730#0"/>
    <trip id="veh122" type="veh_passenger" depart="287.39" departLane="best" from="-969625974#3" to="900926531#0"/>
    <trip id="veh123" type="veh_passenger" depart="289.75" departLane="best" departSpeed="max" from="-13741293#6" to="-33651797#1"/>
    <trip id="veh124" type="veh_passenger" depart="292.10" departLane="best" departSpeed="max" from="-4268288#2" to="5686815#0"/>
    <trip id="veh125" type="veh_passenger" depart="294.46" departLane="best" from="4652071#3" to="493830471#0"/>
    <trip id="veh126" type="veh_passenger" depart="296.82" departLane="best" departSpeed="max" from="-686198241#1" to="-27616548#7"/>
    <trip id="veh127" type="veh_passenger" depart="299.17" departLane="best" from="445695121" to="33024556#0"/>
    <trip id="veh128" type="veh_passenger" depart="301.53" departLane="best" departSpeed="max" from="286661014#0" to="-1110574525#2"/>
    <trip id="veh129" type="veh_passenger" depart="303.88" departLane="best" departSpeed="max" from="4321249#0" to="-45475658#5"/>
    <trip id="veh130" type="veh_passenger" depart="306.24" departLane="best" from="296783427#0" to="5686835#0"/>
    <trip id="veh131" type="veh_passenger" depart="308.59" departLane="best" departSpeed="max" from="-24221133#1" to="225299890#0"/>
    <trip id="veh132" type="veh_passenger" depart="310.95" departLane="best" from="-222151618#5" to="228017284#1"/>
    <trip id="veh133" type="veh_passenger" depart="313.30" departLane="best" from="4301727#0" to="252080342#0"/>
    <trip id="veh134" type="veh_passenger" depart="315.66" departLane="best" from="33002813#0" to="33024564#0"/>
    <trip id="veh135" type="veh_passenger" depart="318.02" departLane="best" departSpeed="max" from="25823793" to="-4301721#1"/>
    <trip id="veh136" type="veh_passenger" depart="320.37" departLane="best" from="156242945#0" to="5090524#0"/>
    <trip id="veh137" type="veh_passenger" depart="322.73" departLane="best" departSpeed="max" from="45474173#0" to="-218186575#7"/>
    <trip id="veh138" type="veh_passenger" depart="325.08" departLane="best" departSpeed="max" from="112557198#0" to="-444707654"/>
    <trip id="veh139" type="veh_passenger" depart="327.44" departLane="best" departSpeed="max" from="-10070564#1" to="4212258#0"/>
    <trip id="veh140" type="veh_passenger" depart="329.79" departLane="best" from="-263506114#5" to="-4298417#1"/>
    <trip id="veh141" type="veh_passenger" depart="332.15" departLane="best" departSpeed="max" from="33910430" to="-458263066#2"/>
    <trip id="veh142" type="veh_passenger" depart="334.51" departLane="best" from="1172636856#0" to="-112557198#1"/>
    <trip id="veh143" type="veh_passenger" depart="336.86" departLane="best" from="-14632489#7" to="-4958304#7"/>
    <trip id="veh144" type="veh_passenger" depart="339.22" departLane="best" from="5074694#8" to="22738843#0"/>
    <trip id="veh145" type="veh_passenger" depart="341.57" departLane="best" from="445695121" to="237888211#0"/>
    <trip id="veh146" type="veh_passenger" depart="343.93" departLane="best" from="446790437" to="-232846228#1"/>
    <trip id="veh147" type="veh_passenger" depart="346.28" departLane="best" from="-4652000#6" to="5080129#0"/>
    <trip id="veh148" type="veh_passenger" depart="348.64" departLane="best" from="4301712#0" to="4652070#0"/>
    <trip id="veh149" type="veh_passenger" depart="351.00" departLane="best" from="499225111#0" to="220918702#0"/>
    <trip id="veh150" type="veh_passenger" depart="353.35" departLane="best" from="-381084331" to="-222151618#7"/>
    <trip id="veh151" type="veh_passenger" depart="355.71" departLane="best" departSpeed="max" from="-900926531#3" to="265141045#5"/>
    <trip id="veh152" type="veh_passenger" depart="358.06" departLane="best" from="-265141045#8" to="553564817#0"/>
    <trip id="veh153" type="veh_passenger" depart="360.42" departLane="best" departSpeed="max" from="4651982#0" to="69844797#0"/>
    <trip id="veh154" type="veh_passenger" depart="362.77" departLane="best" departSpeed="max" from="4301739#0" to="493830471#0"/>
    <trip id="veh155" type="veh_passenger" depart="365.13" departLane="best" from="-1236972330#1" to="35039151"/>
    <trip id="veh156" type="veh_passenger" depart="367.49" departLane="best" departSpeed="max" from="-5074697" to="553564817#0"/>
    <trip id="veh157" type="veh_passenger" depart="369.84" departLane="best" from="4301727#0" to="30326731#0"/>
    <trip id="veh158" type="veh_passenger" depart="372.20" departLane="best" departSpeed="max" from="4301739#0" to="4321248#0"/>
    <trip id="veh159" type="veh_passenger" depart="374.55" departLane="best" departSpeed="max" from="-34081173#2" to="4301730#0"/>
    <trip id="veh160" type="veh_passenger" depart="376.91" departLane="best" from="1263683890#0" to="-458263066#2"/>
    <trip id="veh161" type="veh_passenger" depart="379.26" departLane="best" from="4301708#0" to="-34121802#5"/>
    <trip id="veh162" type="veh_passenger" depart="381.62" departLane="best" from="-1208975720#7" to="-327452916#1"/>
    <trip id="veh163" type="veh_passenger" depart="383.98" departLane="best" from="-5074651#5" to="30326731#0"/>
    <trip id="veh164" type="veh_passenger" depart="386.33" departLane="best" from="60477583#0" to="-445695122"/>
    <trip id="veh165" type="veh_passenger" depart="388.69" departLane="best" from="-265141045#7" to="-10075414#4"/>
    <trip id="veh166" type="veh_passenger" depart="391.04" departLane="best" from="-695753526#2" to="22241344#0-AddedOffRampEdge"/>
    <trip id="veh167" type="veh_passenger" depart="393.40" departLane="best" departSpeed="max" from="5686840" to="225299890#0"/>
    <trip id="veh168" type="veh_passenger" depart="395.75" departLane="best" from="5686885#0" to="-30327576#6"/>
    <trip id="veh169" type="veh_passenger" depart="398.11" departLane="best" departSpeed="max" from="6038086#0" to="-4301733#1"/>
    <trip id="veh170" type="veh_passenger" depart="400.46" departLane="best" from="222151618#6" to="1262522136#0"/>
    <trip id="veh171" type="veh_passenger" depart="402.82" departLane="best" from="33025451#0" to="-4652041#2"/>
    <trip id="veh172" type="veh_passenger" depart="405.18" departLane="best" from="24263685#0" to="-216566629#1"/>
    <trip id="veh173" type="veh_passenger" depart="407.53" departLane="best" departSpeed="max" from="-69844797#1" to="23436519#0"/>
    <trip id="veh174" type="veh_passenger" depart="409.89" departLane="best" from="-4212256#5" to="332467866#0"/>
    <trip id="veh175" type="veh_passenger" depart="412.24" departLane="best" departSpeed="max" from="-10070564#1" to="553564817#0"/>
    <trip id="veh176" type="veh_passenger" depart="414.60" departLane="best" from="222151619#0" to="34121802#0"/>
    <trip id="veh177" type="veh_passenger" depart="416.95" departLane="best" departSpeed="max" from="33910430" to="30679706#0"/>
    <trip id="veh178" type="veh_passenger" depart="419.31" departLane="best" departSpeed="max" from="-6694649" to="-204318935#1"/>
    <trip id="veh179" type="veh_passenger" depart="421.67" departLane="best" from="296783428#2" to="5090496#0"/>
    <trip id="veh180" type="veh_passenger" depart="424.02" departLane="best" from="-4652041#6" to="24263685#9"/>
    <trip id="veh181" type="veh_passenger" depart="426.38" departLane="best" from="33002814" to="-45475658#5"/>
    <trip id="veh182" type="veh_passenger" depart="428.73" departLane="best" departSpeed="max" from="-4652017#3" to="1168168596#0"/>
    <trip id="veh183" type="veh_passenger" depart="431.09" departLane="best" from="-83748395#1" to="-45475658#1"/>
    <trip id="veh184" type="veh_passenger" depart="433.44" departLane="best" from="232846229" to="-1187395322#2"/>
    <trip id="veh185" type="veh_passenger" depart="435.80" departLane="best" from="5686842#0" to="-30979256#1"/>
    <trip id="veh186" type="veh_passenger" depart="438.16" departLane="best" from="5074694#0" to="-263506114#5"/>
    <trip id="veh187" type="veh_passenger" depart="440.51" departLane="best" from="-458026975#2" to="22758492#0"/>
    <trip id="veh188" type="veh_passenger" depart="442.87" departLane="best" from="-10070534" to="35159933#0"/>
    <trip id="veh189" type="veh_passenger" depart="445.22" departLane="best" from="1183480610#0" to="237888004"/>
    <trip id="veh190" type="veh_passenger" depart="447.58" departLane="best" departSpeed="max" from="286661014#0" to="1290816545"/>
    <trip id="veh191" type="veh_passenger" depart="449.93" departLane="best" from="-33024553#3" to="-33651797#1"/>
    <trip id="veh192" type="veh_passenger" depart="452.29" departLane="best" from="4301709#0" to="296783427#0"/>
    <trip id="veh193" type="veh_passenger" depart="454.65" departLane="best" from="-207223487" to="-216566737#1"/>
    <trip id="veh194" type="veh_passenger" depart="457.00" departLane="best" departSpeed="max" from="25823793" to="-5213459#2"/>
    <trip id="veh195" type="veh_passenger" depart="459.36" departLane="best" from="4663340#1" to="-33910430"/>
    <trip id="veh196" type="veh_passenger" depart="461.71" departLane="best" from="327452916#0" to="-1262466663#1"/>
    <trip id="veh197" type="veh_passenger" depart="464.07" departLane="best" from="35159935#4" to="-133596276#8"/>
    <trip id="veh198" type="veh_passenger" depart="466.42" departLane="best" departSpeed="max" from="45475658#0" to="-207223487"/>
    <trip id="veh199" type="veh_passenger" depart="468.78" departLane="best" from="10075414#0" to="27616550#0"/>
    <trip id="veh200" type="veh_passenger" depart="471.14" departLane="best" departSpeed="max" from="-310302229#4" to="33002813#0"/>
    <trip id="veh201" type="veh_passenger" depart="473.49" departLane="best" from="193613983#0" to="4212254#0"/>
    <trip id="veh202" type="veh_passenger" depart="475.85" departLane="best" from="28823580#0" to="-10390227#1"/>
    <trip id="veh203" type="veh_passenger" depart="478.20" departLane="best" from="34614459#0" to="-4212256#5"/>
    <trip id="veh204" type="veh_passenger" depart="480.56" departLane="best" departSpeed="max" from="-30326737#1" to="6299077#0"/>
    <trip id="veh205" type="veh_passenger" depart="482.91" departLane="best" from="216566629#2" to="-1323693938"/>
    <trip id="veh206" type="veh_passenger" depart="485.27" departLane="best" from="-381084331" to="4651995#0"/>
    <trip id="veh207" type="veh_passenger" depart="487.62" departLane="best" from="-1263682737#2" to="4301741#0"/>
    <trip id="veh208" type="veh_passenger" depart="489.98" departLane="best" from="296783428#9" to="8103405#0"/>
    <trip id="veh209" type="veh_passenger" depart="492.34" departLane="best" from="468828533" to="25795299#0"/>
    <trip id="veh210" type="veh_passenger" depart="494.69" departLane="best" from="33002813#0" to="-204318936#2"/>
    <trip id="veh211" type="veh_passenger" depart="497.05" departLane="best" departSpeed="max" from="439423519#0" to="22758492#0"/>
    <trip id="veh212" type="veh_passenger" depart="499.40" departLane="best" from="-4958304#5" to="35155501"/>
    <trip id="veh213" type="veh_passenger" depart="501.76" departLane="best" from="1292415000" to="-4298417#1"/>
    <trip id="veh214" type="veh_passenger" depart="504.11" departLane="best" departSpeed="max" from="-35159936#2" to="28823581#0"/>
    <trip id="veh215" type="veh_passenger" depart="506.47" departLane="best" from="4000041#0" to="21675239#0"/>
    <trip id="veh216" type="veh_passenger" depart="508.83" departLane="best" from="25757055#0" to="-439423519#2"/>
    <trip id="veh217" type="veh_passenger" depart="511.18" departLane="best" from="172887471#0" to="-446998088#1"/>
    <trip id="veh218" type="veh_passenger" depart="513.54" departLane="best" departSpeed="max" from="-4301714#1" to="-4674878#3"/>
    <trip id="veh219" type="veh_passenger" depart="515.89" departLane="best" from="-222151622#5" to="248101310#7"/>
    <trip id="veh220" type="veh_passenger" depart="518.25" departLane="best" departSpeed="max" from="-34551388" to="33002812#0"/>
    <trip id="veh221" type="veh_passenger" depart="520.60" departLane="best" from="30986651#0" to="-172887471#1"/>
    <trip id="veh222" type="veh_passenger" depart="522.96" departLane="best" from="-969625974#3" to="225299890#0"/>
    <trip id="veh223" type="veh_passenger" depart="525.32" departLane="best" from="10390225#0" to="-33025454"/>
    <trip id="veh224" type="veh_passenger" depart="527.67" departLane="best" from="1119086047#0" to="5090524#0"/>
    <trip id="veh225" type="veh_passenger" depart="530.03" departLane="best" from="232846228#0" to="22891215#0"/>
    <trip id="veh226" type="veh_passenger" depart="532.38" departLane="best" from="458026975#0" to="415270447#0"/>
    <trip id="veh227" type="veh_passenger" depart="534.74" departLane="best" departSpeed="max" from="-695753526#2" to="-10390227#5"/>
    <trip id="veh228" type="veh_passenger" depart="537.09" departLane="best" departSpeed="max" from="-553564817#1" to="35159936#0"/>
    <trip id="veh229" type="veh_passenger" depart="539.45" departLane="best" from="45475658#2" to="61760483#0"/>
    <trip id="veh230" type="veh_passenger" depart="541.81" departLane="best" from="1110574524#0" to="35159933#0"/>
    <trip id="veh231" type="veh_passenger" depart="544.16" departLane="best" departSpeed="max" from="223996457#0" to="252080341#0"/>
    <trip id="veh232" type="veh_passenger" depart="546.52" departLane="best" departSpeed="max" from="-34081173#2" to="-33910430"/>
    <trip id="veh233" type="veh_passenger" depart="548.87" departLane="best" from="1208916258#0" to="-1262538008#1"/>
    <trip id="veh234" type="veh_passenger" depart="551.23" departLane="best" from="5103829#4" to="30979310"/>