<?xml version="1.0" encoding="UTF-8"?>

<!-- generated on 2025-01-10 15:55:37 by Eclipse SUMO netedit Version 1.21.0
<neteditConfiguration xmlns:xsi="http://www.w3.org/2001/XMLSchema-instance" xsi:noNamespaceSchemaLocation="http://sumo.dlr.de/xsd/neteditConfiguration.xsd">

    <input>
        <sumocfg-file value="C:\Users\v5run\2025-01-10-15-47-42\osm.sumocfg"/>
        <additional-files value="C:\Users\v5run\2025-01-10-15-47-42\osm.poly.xml.gz"/>
        <route-files value="C:\Users\v5run\2025-01-10-15-47-42\osm.passenger.trips.xml"/>
        <sumo-net-file value="C:\Users\v5run\2025-01-10-15-47-42\uoft.net.xml"/>
    </input>

    <output>
        <output-file value="C:\Users\v5run\2025-01-10-15-47-42\uoft.net.xml"/>
        <output.street-names value="true"/>
    </output>

    <processing>
        <geometry.min-radius.fix.railways value="false"/>
        <geometry.max-grade.fix value="false"/>
        <offset.disable-normalization value="true"/>
        <lefthand value="0"/>
    </processing>

    <junctions>
        <no-turnarounds value="true"/>
        <junctions.corner-detail value="5"/>
        <junctions.limit-turn-speed value="5.50"/>
        <rectangular-lane-cut value="0"/>
    </junctions>

    <pedestrian>
        <walkingareas value="0"/>
    </pedestrian>

    <netedit>
        <ignore.routeelements value="false"/>
    </netedit>

</neteditConfiguration>
-->

<net version="1.20" junctionCornerDetail="5" limitTurnSpeed="5.50" xmlns:xsi="http://www.w3.org/2001/XMLSchema-instance" xsi:noNamespaceSchemaLocation="http://sumo.dlr.de/xsd/net_file.xsd">

    <location netOffset="-629549.03,-4835170.33" convBoundary="0.00,0.00,720.13,459.32" origBoundary="-79.393286,43.658243,-79.384385,43.662292" projParameter="+proj=utm +zone=17 +ellps=WGS84 +datum=WGS84 +units=m +no_defs"/>

    <type id="highway.footway" priority="1" numLanes="1" speed="2.78" allow="pedestrian" oneway="1" width="2.00"/>
    <type id="highway.pedestrian" priority="1" numLanes="1" speed="2.78" allow="pedestrian" oneway="1" width="2.00"/>
    <type id="highway.residential" priority="3" numLanes="1" speed="13.89" disallow="tram rail_urban rail rail_electric rail_fast ship container cable_car subway aircraft wheelchair scooter drone" oneway="0"/>
    <type id="highway.secondary" priority="11" numLanes="1" speed="27.78" disallow="tram rail_urban rail rail_electric rail_fast ship container cable_car subway aircraft wheelchair scooter drone" oneway="0"/>
    <type id="highway.secondary_link" priority="6" numLanes="1" speed="22.22" disallow="tram rail_urban rail rail_electric rail_fast ship container cable_car subway aircraft wheelchair scooter drone" oneway="0"/>
    <type id="highway.service" priority="1" numLanes="1" speed="5.56" allow="pedestrian delivery bicycle" oneway="0"/>
    <type id="highway.steps" priority="1" numLanes="1" speed="1.39" allow="pedestrian" oneway="1" width="2.00"/>
    <type id="highway.tertiary" priority="10" numLanes="1" speed="22.22" disallow="tram rail_urban rail rail_electric rail_fast ship container cable_car subway aircraft wheelchair scooter drone" oneway="0"/>
    <type id="highway.unclassified" priority="4" numLanes="1" speed="13.89" disallow="tram rail_urban rail rail_electric rail_fast ship container cable_car subway aircraft wheelchair scooter drone" oneway="0"/>
    <type id="railway.subway" priority="18" numLanes="1" speed="27.78" allow="subway" oneway="1"/>
    <type id="railway.tram" priority="17" numLanes="1" speed="13.89" allow="tram" oneway="1"/>

    <edge id=":10040870234_0" function="internal">
        <lane id=":10040870234_0_0" index="0" allow="tram" speed="13.89" length="3.19" shape="603.81,291.65 603.55,290.74 603.34,290.11 603.19,289.49 603.13,288.55"/>
    </edge>
    <edge id=":10040870234_1" function="internal">
        <lane id=":10040870234_1_0" index="0" allow="tram" speed="13.89" length="6.53" shape="604.93,285.06 603.80,286.63 603.00,287.69 602.15,288.71 600.87,290.17"/>
    </edge>
    <edge id=":1128901958_0" function="internal">
        <lane id=":1128901958_0_0" index="0" allow="pedestrian delivery bicycle" speed="3.65" length="4.67" shape="419.85,444.90 418.71,445.79 417.83,445.91 417.20,445.28 416.81,443.89"/>
    </edge>
    <edge id=":1128901965_0" function="internal">
        <lane id=":1128901965_0_0" index="0" allow="pedestrian delivery bicycle" speed="3.65" length="4.67" shape="368.87,434.21 367.58,434.85 366.69,434.80 366.20,434.05 366.10,432.61"/>
    </edge>
    <edge id=":1128901966_0" function="internal">
        <lane id=":1128901966_0_0" index="0" allow="pedestrian delivery bicycle" speed="5.11" length="5.06" shape="424.35,441.05 423.00,440.85 421.90,441.14 421.04,441.91 420.42,443.17"/>
    </edge>
    <edge id=":1128901966_1" function="internal">
        <lane id=":1128901966_1_0" index="0" disallow="tram rail_urban rail rail_electric rail_fast ship container cable_car subway aircraft wheelchair scooter drone" speed="11.11" length="9.37" shape="424.35,441.05 415.40,438.26"/>
    </edge>
    <edge id=":1128901966_2" function="internal">
        <lane id=":1128901966_2_0" index="0" disallow="tram rail_urban rail rail_electric rail_fast ship container cable_car subway aircraft wheelchair scooter drone" speed="11.11" length="9.32" shape="416.38,435.21 425.27,437.99"/>
    </edge>
    <edge id=":1128901966_3" function="internal">
        <lane id=":1128901966_3_0" index="0" allow="pedestrian delivery bicycle" speed="6.86" length="3.22" shape="416.38,435.21 418.90,436.43 419.17,436.75"/>
    </edge>
    <edge id=":1128901966_7" function="internal">
        <lane id=":1128901966_7_0" index="0" allow="pedestrian delivery bicycle" speed="6.86" length="6.98" shape="419.17,436.75 420.41,438.17 420.92,440.42 420.42,443.17"/>
    </edge>
    <edge id=":1128901966_4" function="internal">
        <lane id=":1128901966_4_0" index="0" allow="pedestrian delivery bicycle" speed="5.03" length="5.01" shape="417.39,442.16 417.63,440.81 417.38,439.71 416.64,438.86 415.40,438.26"/>
    </edge>
    <edge id=":1128901966_5" function="internal">
        <lane id=":1128901966_5_0" index="0" allow="pedestrian delivery bicycle" speed="6.91" length="10.12" shape="417.39,442.16 418.62,439.67 420.35,438.14 422.56,437.58 425.27,437.99"/>
    </edge>
    <edge id=":1128901966_6" function="internal">
        <lane id=":1128901966_6_0" index="0" allow="pedestrian delivery bicycle" speed="3.65" length="4.67" shape="417.39,442.16 418.52,441.28 419.41,441.15 420.04,441.78 420.42,443.17"/>
    </edge>
    <edge id=":11346211616_0" function="internal">
        <lane id=":11346211616_0_0" index="0" allow="pedestrian delivery bicycle" speed="3.65" length="4.67" shape="12.11,167.76 11.22,166.62 11.09,165.74 11.72,165.10 13.11,164.72"/>
    </edge>
    <edge id=":11484505451_0" function="internal">
        <lane id=":11484505451_0_0" index="0" allow="pedestrian delivery bicycle" speed="5.56" length="7.79" shape="486.70,50.77 488.62,51.70 489.78,53.02 490.18,54.73 489.80,56.84"/>
    </edge>
    <edge id=":11484505451_1" function="internal">
        <lane id=":11484505451_1_0" index="0" allow="pedestrian delivery bicycle" speed="3.90" length="2.60" shape="486.76,55.84 486.89,55.14 486.76,54.57 486.37,54.13 485.73,53.82"/>
    </edge>
    <edge id=":11484505454_0" function="internal">
        <lane id=":11484505454_0_0" index="0" allow="pedestrian delivery bicycle" speed="5.33" length="5.41" shape="471.64,62.02 470.08,61.74 468.81,61.94 467.83,62.62 467.15,63.78"/>
    </edge>
    <edge id=":11484505454_1" function="internal">
        <lane id=":11484505454_1_0" index="0" allow="pedestrian delivery bicycle" speed="5.56" length="10.72" shape="471.64,62.02 468.94,60.76 467.39,58.95 467.00,56.61 467.77,53.73"/>
    </edge>
    <edge id=":11484505454_2" function="internal">
        <lane id=":11484505454_2_0" index="0" allow="pedestrian delivery bicycle" speed="3.65" length="4.67" shape="471.64,62.02 470.72,60.91 470.57,60.03 471.19,59.38 472.57,58.96"/>
    </edge>
    <edge id=":11484505454_3" function="internal">
        <lane id=":11484505454_3_0" index="0" allow="pedestrian delivery bicycle" speed="4.93" length="5.14" shape="470.71,54.98 470.35,56.37 470.53,57.49 471.27,58.35 472.57,58.96"/>
    </edge>
    <edge id=":11484505454_4" function="internal">
        <lane id=":11484505454_4_0" index="0" allow="pedestrian delivery bicycle" speed="5.56" length="9.49" shape="470.71,54.98 467.15,63.78"/>
    </edge>
    <edge id=":11484505454_5" function="internal">
        <lane id=":11484505454_5_0" index="0" allow="pedestrian delivery bicycle" speed="3.65" length="4.67" shape="470.71,54.98 469.51,55.77 468.61,55.83 468.04,55.14 467.77,53.73"/>
    </edge>
    <edge id=":11484505454_6" function="internal">
        <lane id=":11484505454_6_0" index="0" allow="pedestrian delivery bicycle" speed="5.56" length="9.62" shape="464.16,62.65 467.77,53.73"/>
    </edge>
    <edge id=":11484505454_7" function="internal">
        <lane id=":11484505454_7_0" index="0" allow="pedestrian delivery bicycle" speed="5.56" length="10.31" shape="464.16,62.65 465.48,60.32 467.32,58.93 469.69,58.48 472.57,58.96"/>
    </edge>
    <edge id=":11484505454_8" function="internal">
        <lane id=":11484505454_8_0" index="0" allow="pedestrian delivery bicycle" speed="3.65" length="4.67" shape="464.16,62.65 465.34,61.81 466.23,61.72 466.83,62.38 467.15,63.78"/>
    </edge>
    <edge id=":11486434654_0" function="internal">
        <lane id=":11486434654_0_0" index="0" allow="pedestrian delivery bicycle" speed="3.65" length="4.67" shape="415.37,141.48 414.49,140.34 414.36,139.45 415.00,138.82 416.39,138.44"/>
    </edge>
    <edge id=":11645252770_0" function="internal">
        <lane id=":11645252770_0_0" index="0" allow="pedestrian delivery bicycle" speed="5.56" length="5.21" shape="620.70,206.99 615.70,205.49"/>
    </edge>
    <edge id=":11645252770_1" function="internal">
        <lane id=":11645252770_1_0" index="0" allow="pedestrian delivery bicycle" speed="3.65" length="1.44" shape="620.70,206.99 619.76,205.89"/>
    </edge>
    <edge id=":11645252770_4" function="internal">
        <lane id=":11645252770_4_0" index="0" allow="pedestrian delivery bicycle" speed="3.65" length="3.23" shape="619.76,205.89 619.60,205.01 620.20,204.36 621.58,203.92"/>
    </edge>
    <edge id=":11645252770_2" function="internal">
        <lane id=":11645252770_2_0" index="0" allow="pedestrian delivery bicycle" speed="5.56" length="5.13" shape="616.67,202.44 621.58,203.92"/>
    </edge>
    <edge id=":11645252770_3" function="internal">
        <lane id=":11645252770_3_0" index="0" allow="pedestrian delivery bicycle" speed="3.65" length="1.44" shape="616.67,202.44 617.57,203.56"/>
    </edge>
    <edge id=":11645252770_5" function="internal">
        <lane id=":11645252770_5_0" index="0" allow="pedestrian delivery bicycle" speed="3.65" length="3.23" shape="617.57,203.56 617.71,204.45 617.09,205.09 615.70,205.49"/>
    </edge>
    <edge id=":1252845689_0" function="internal">
        <lane id=":1252845689_0_0" index="0" allow="pedestrian delivery bicycle" speed="3.65" length="4.67" shape="216.95,447.12 215.82,448.02 214.94,448.15 214.30,447.53 213.91,446.14"/>
    </edge>
    <edge id=":1252845744_0" function="internal">
        <lane id=":1252845744_0_0" index="0" allow="pedestrian delivery bicycle" speed="5.56" length="5.03" shape="80.55,401.55 79.03,406.34"/>
    </edge>
    <edge id=":1252845744_1" function="internal">
        <lane id=":1252845744_1_0" index="0" allow="pedestrian delivery bicycle" speed="3.65" length="1.44" shape="80.55,401.55 79.42,402.44"/>
    </edge>
    <edge id=":1252845744_4" function="internal">
        <lane id=":1252845744_4_0" index="0" allow="pedestrian delivery bicycle" speed="3.65" length="3.23" shape="79.42,402.44 78.53,402.57 77.90,401.94 77.51,400.56"/>
    </edge>
    <edge id=":1252845744_2" function="internal">
        <lane id=":1252845744_2_0" index="0" allow="pedestrian delivery bicycle" speed="5.56" length="5.08" shape="75.97,405.40 77.51,400.56"/>
    </edge>
    <edge id=":1252845744_3" function="internal">
        <lane id=":1252845744_3_0" index="0" allow="pedestrian delivery bicycle" speed="3.65" length="1.44" shape="75.97,405.40 77.09,404.49"/>
    </edge>
    <edge id=":1252845744_5" function="internal">
        <lane id=":1252845744_5_0" index="0" allow="pedestrian delivery bicycle" speed="3.65" length="3.23" shape="77.09,404.49 77.97,404.34 78.62,404.96 79.03,406.34"/>
    </edge>
    <edge id=":1271641002_0" function="internal">
        <lane id=":1271641002_0_0" index="0" allow="pedestrian delivery bicycle" speed="5.56" length="5.25" shape="460.05,111.87 461.30,106.77"/>
    </edge>
    <edge id=":1271641004_0" function="internal">
        <lane id=":1271641004_0_0" index="0" allow="pedestrian delivery bicycle" speed="5.56" length="5.36" shape="479.88,118.24 478.18,123.32"/>
    </edge>
    <edge id=":1305292330_0" function="internal">
        <lane id=":1305292330_0_0" index="0" allow="pedestrian delivery bicycle" speed="3.65" length="4.67" shape="675.55,134.13 676.50,135.21 676.69,136.09 676.10,136.76 674.73,137.23"/>
    </edge>
    <edge id=":1370536646_0" function="internal">
        <lane id=":1370536646_0_0" index="0" allow="pedestrian delivery bicycle" speed="3.65" length="4.67" shape="695.46,88.34 696.42,89.42 696.61,90.29 696.02,90.97 694.66,91.44"/>
    </edge>
    <edge id=":1687925402_0" function="internal">
        <lane id=":1687925402_0_0" index="0" allow="pedestrian delivery bicycle" speed="3.65" length="4.67" shape="638.14,453.14 639.03,454.27 639.16,455.16 638.53,455.79 637.14,456.18"/>
    </edge>
    <edge id=":1721865354_0" function="internal">
        <lane id=":1721865354_0_0" index="0" disallow="tram rail_urban rail rail_electric rail_fast ship container cable_car subway aircraft wheelchair scooter drone" speed="11.11" length="21.48" shape="186.89,255.85 191.38,251.61 194.12,248.30 196.03,244.46 198.01,238.63"/>
        <lane id=":1721865354_0_1" index="1" disallow="tram rail_urban rail rail_electric rail_fast ship container cable_car subway aircraft wheelchair scooter drone" speed="11.11" length="21.48" shape="189.83,257.47 194.23,252.89 197.00,249.46 198.99,245.56 201.06,239.59"/>
        <lane id=":1721865354_0_2" index="2" disallow="tram rail_urban rail rail_electric rail_fast ship container cable_car subway aircraft wheelchair scooter drone" speed="11.11" length="21.48" shape="192.73,259.07 197.23,254.34 200.02,250.77 202.01,246.72 204.11,240.56"/>
    </edge>
    <edge id=":1721865354_3" function="internal">
        <lane id=":1721865354_3_0" index="0" disallow="pedestrian tram rail_urban rail rail_electric rail_fast ship container cable_car subway aircraft wheelchair scooter drone" speed="10.86" length="20.93" shape="201.11,260.15 199.06,257.55 198.37,253.26 199.03,247.27 201.06,239.59"/>
        <lane id=":1721865354_3_1" index="1" disallow="pedestrian tram rail_urban rail rail_electric rail_fast ship container cable_car subway aircraft wheelchair scooter drone" speed="10.52" length="20.93" shape="201.11,260.15 200.30,258.28 200.52,254.39 201.79,248.49 204.11,240.56"/>
    </edge>
    <edge id=":1721865416_0" function="internal">
        <lane id=":1721865416_0_0" index="0" allow="pedestrian delivery bicycle" speed="3.65" length="4.67" shape="293.75,270.99 293.64,269.55 294.02,268.74 294.90,268.56 296.27,269.01"/>
    </edge>
    <edge id=":1721865715_0" function="internal">
        <lane id=":1721865715_0_0" index="0" allow="pedestrian delivery bicycle" speed="3.65" length="4.67" shape="323.58,361.79 324.87,362.44 325.37,363.18 325.07,364.03 323.98,364.97"/>
    </edge>
    <edge id=":1721865730_0" function="internal">
        <lane id=":1721865730_0_0" index="0" allow="pedestrian delivery bicycle" speed="4.17" length="4.01" shape="91.37,364.20 90.79,363.16 90.43,362.43 90.11,361.68 89.69,360.57"/>
    </edge>
    <edge id=":1721865907_0" function="internal">
        <lane id=":1721865907_0_0" index="0" allow="pedestrian delivery bicycle" speed="3.65" length="4.67" shape="68.28,441.35 67.16,442.26 66.28,442.41 65.63,441.79 65.22,440.41"/>
    </edge>
    <edge id=":1895652064_0" function="internal">
        <lane id=":1895652064_0_0" index="0" allow="pedestrian delivery bicycle" speed="5.56" length="5.16" shape="314.56,56.76 314.15,58.24 313.78,59.22 313.37,60.19 312.82,61.61"/>
    </edge>
    <edge id=":20979752_0" function="internal">
        <lane id=":20979752_0_0" index="0" disallow="tram rail_urban rail rail_electric rail_fast ship container cable_car subway aircraft wheelchair scooter drone" speed="11.11" length="8.04" shape="157.60,273.79 164.81,270.24"/>
        <lane id=":20979752_0_1" index="1" disallow="tram rail_urban rail rail_electric rail_fast ship container cable_car subway aircraft wheelchair scooter drone" speed="11.11" length="8.05" shape="158.96,276.68 166.19,273.13"/>
        <lane id=":20979752_0_2" index="2" disallow="tram rail_urban rail rail_electric rail_fast ship container cable_car subway aircraft wheelchair scooter drone" speed="11.11" length="8.06" shape="160.33,279.58 167.56,276.02"/>
    </edge>
    <edge id=":20979752_3" function="internal">
        <lane id=":20979752_3_0" index="0" disallow="pedestrian tram rail_urban rail rail_electric rail_fast ship container cable_car subway aircraft wheelchair scooter drone" speed="16.66" length="8.49" shape="160.33,279.58 162.35,278.12 163.43,276.60 164.57,275.25 166.77,274.35"/>
    </edge>
    <edge id=":20979753_0" function="internal">
        <lane id=":20979753_0_0" index="0" disallow="tram rail_urban rail rail_electric rail_fast ship container cable_car subway aircraft wheelchair scooter drone" speed="13.89" length="10.58" shape="224.93,277.32 225.56,280.20 225.82,282.26 226.36,284.18 227.85,286.63"/>
        <lane id=":20979753_0_1" index="1" disallow="tram rail_urban rail rail_electric rail_fast ship container cable_car subway aircraft wheelchair scooter drone" speed="13.89" length="10.58" shape="221.98,278.63 222.69,281.70 223.02,283.90 223.66,285.93 225.29,288.54"/>
        <lane id=":20979753_0_2" index="2" disallow="tram rail_urban rail rail_electric rail_fast ship container cable_car subway aircraft wheelchair scooter drone" speed="13.89" length="10.58" shape="219.03,279.94 219.81,283.21 220.22,285.53 220.96,287.68 222.72,290.46"/>
    </edge>
    <edge id=":20979753_3" function="internal">
        <lane id=":20979753_3_0" index="0" disallow="pedestrian tram rail_urban rail rail_electric rail_fast ship container cable_car subway aircraft wheelchair scooter drone" speed="18.05" length="11.26" shape="214.88,283.34 217.64,284.85 220.22,285.39 222.74,286.21 225.29,288.54"/>
        <lane id=":20979753_3_1" index="1" disallow="pedestrian tram rail_urban rail rail_electric rail_fast ship container cable_car subway aircraft wheelchair scooter drone" speed="18.05" length="11.26" shape="214.88,283.34 217.28,285.21 219.06,286.51 220.70,288.00 222.72,290.46"/>
    </edge>
    <edge id=":20979755_0" function="internal">
        <lane id=":20979755_0_0" index="0" disallow="pedestrian tram rail_urban rail rail_electric rail_fast ship container cable_car subway aircraft wheelchair scooter drone" speed="9.13" length="13.97" shape="281.40,398.50 278.90,399.48 276.84,401.62 275.21,404.93 274.02,409.39"/>
    </edge>
    <edge id=":20979755_1" function="internal">
        <lane id=":20979755_1_0" index="0" disallow="tram rail_urban rail rail_electric rail_fast ship container cable_car subway aircraft wheelchair scooter drone" speed="6.15" length="8.46" shape="275.63,390.34 276.10,392.80 277.14,394.45 278.75,395.29 280.94,395.33"/>
    </edge>
    <edge id=":20979755_2" function="internal">
        <lane id=":20979755_2_0" index="0" disallow="pedestrian tram rail_urban rail rail_electric rail_fast ship container cable_car subway aircraft wheelchair scooter drone" speed="13.89" length="18.85" shape="275.63,390.34 275.40,395.91 274.16,399.62 272.47,403.29 270.87,408.78"/>
        <lane id=":20979755_2_1" index="1" disallow="pedestrian tram rail_urban rail rail_electric rail_fast ship container cable_car subway aircraft wheelchair scooter drone" speed="13.89" length="18.85" shape="272.44,390.54 272.19,395.88 270.95,399.42 269.28,402.92 267.73,408.18"/>
    </edge>
    <edge id=":20979755_4" function="internal">
        <lane id=":20979755_4_0" index="0" allow="pedestrian delivery bicycle" speed="9.03" length="16.95" shape="269.24,390.75 269.23,396.67 268.33,401.10 266.54,404.06 263.86,405.53"/>
    </edge>
    <edge id=":20979762_0" function="internal">
        <lane id=":20979762_0_0" index="0" disallow="tram rail_urban rail rail_electric rail_fast ship container cable_car subway aircraft wheelchair scooter drone" speed="13.89" length="5.26" shape="227.99,239.00 227.41,240.43 226.85,241.34 226.17,242.19 225.23,243.44"/>
        <lane id=":20979762_0_1" index="1" disallow="tram rail_urban rail rail_electric rail_fast ship container cable_car subway aircraft wheelchair scooter drone" speed="13.89" length="4.32" shape="224.96,237.96 224.48,239.13 224.00,239.86 223.42,240.54 222.64,241.56"/>
        <lane id=":20979762_0_2" index="2" disallow="tram rail_urban rail rail_electric rail_fast ship container cable_car subway aircraft wheelchair scooter drone" speed="13.89" length="3.38" shape="221.94,236.92 221.55,237.82 221.15,238.38 220.67,238.89 220.05,239.68"/>
    </edge>
    <edge id=":20979762_3" function="internal">
        <lane id=":20979762_3_0" index="0" disallow="pedestrian tram rail_urban rail rail_electric rail_fast ship container cable_car subway aircraft wheelchair scooter drone" speed="20.84" length="4.75" shape="218.91,235.88 220.80,240.23"/>
    </edge>
    <edge id=":2122030533_0" function="internal">
        <lane id=":2122030533_0_0" index="0" disallow="tram rail_urban rail rail_electric rail_fast ship container cable_car subway aircraft wheelchair scooter drone" speed="11.11" length="8.04" shape="580.64,410.56 579.36,418.60"/>
        <lane id=":2122030533_0_1" index="1" disallow="tram rail_urban rail rail_electric rail_fast ship container cable_car subway aircraft wheelchair scooter drone" speed="11.11" length="8.04" shape="577.47,410.16 576.22,417.99"/>
    </edge>
    <edge id=":2122030533_2" function="internal">
        <lane id=":2122030533_2_0" index="0" disallow="tram rail_urban rail rail_electric rail_fast ship container cable_car subway aircraft wheelchair scooter drone" speed="11.11" length="8.15" shape="569.94,416.78 569.88,414.45 569.04,412.89 568.15,411.32 567.94,408.97"/>
        <lane id=":2122030533_2_1" index="1" disallow="tram rail_urban rail rail_electric rail_fast ship container cable_car subway aircraft wheelchair scooter drone" speed="11.11" length="8.15" shape="573.08,417.39 573.03,415.00 572.20,413.39 571.32,411.78 571.12,409.37"/>
        <lane id=":2122030533_2_2" index="2" disallow="tram rail_urban rail rail_electric rail_fast ship container cable_car subway aircraft wheelchair scooter drone" speed="11.11" length="8.15" shape="573.08,417.39 574.29,409.76"/>
    </edge>
    <edge id=":2143484019_0" function="internal">
        <lane id=":2143484019_0_0" index="0" allow="pedestrian delivery bicycle" speed="4.94" length="4.72" shape="438.23,445.23 436.88,445.01 435.81,445.23 435.00,445.88 434.46,446.98"/>
    </edge>
    <edge id=":2143484019_1" function="internal">
        <lane id=":2143484019_1_0" index="0" disallow="tram rail_urban rail rail_electric rail_fast ship container cable_car subway aircraft wheelchair scooter drone" speed="11.11" length="9.40" shape="438.23,445.23 429.23,442.53"/>
    </edge>
    <edge id=":2143484019_2" function="internal">
        <lane id=":2143484019_2_0" index="0" disallow="tram rail_urban rail rail_electric rail_fast ship container cable_car subway aircraft wheelchair scooter drone" speed="11.11" length="9.39" shape="430.16,439.46 439.15,442.17"/>
    </edge>
    <edge id=":2143484019_3" function="internal">
        <lane id=":2143484019_3_0" index="0" allow="pedestrian delivery bicycle" speed="6.76" length="3.34" shape="430.16,439.46 432.70,440.62 433.08,441.02"/>
    </edge>
    <edge id=":2143484019_7" function="internal">
        <lane id=":2143484019_7_0" index="0" allow="pedestrian delivery bicycle" speed="6.76" length="6.55" shape="433.08,441.02 434.26,442.26 434.85,444.38 434.46,446.98"/>
    </edge>
    <edge id=":2143484019_4" function="internal">
        <lane id=":2143484019_4_0" index="0" allow="pedestrian delivery bicycle" speed="4.91" length="4.70" shape="431.40,446.03 431.57,444.84 431.26,443.85 430.48,443.08 429.23,442.53"/>
    </edge>
    <edge id=":2143484019_5" function="internal">
        <lane id=":2143484019_5_0" index="0" allow="pedestrian delivery bicycle" speed="6.79" length="9.85" shape="431.40,446.03 432.54,443.67 434.21,442.24 436.41,441.74 439.15,442.17"/>
    </edge>
    <edge id=":2143484019_6" function="internal">
        <lane id=":2143484019_6_0" index="0" allow="pedestrian delivery bicycle" speed="3.65" length="4.67" shape="431.40,446.03 432.52,445.12 433.40,444.98 434.05,445.59 434.46,446.98"/>
    </edge>
    <edge id=":2143484020_0" function="internal">
        <lane id=":2143484020_0_0" index="0" allow="pedestrian delivery bicycle" speed="4.99" length="4.91" shape="455.93,450.64 454.58,450.40 453.49,450.64 452.65,451.35 452.08,452.54"/>
    </edge>
    <edge id=":2143484020_1" function="internal">
        <lane id=":2143484020_1_0" index="0" disallow="tram rail_urban rail rail_electric rail_fast ship container cable_car subway aircraft wheelchair scooter drone" speed="11.11" length="9.43" shape="455.93,450.64 446.93,447.84"/>
    </edge>
    <edge id=":2143484020_2" function="internal">
        <lane id=":2143484020_2_0" index="0" disallow="tram rail_urban rail rail_electric rail_fast ship container cable_car subway aircraft wheelchair scooter drone" speed="11.11" length="9.50" shape="447.85,444.78 456.91,447.60"/>
    </edge>
    <edge id=":2143484020_3" function="internal">
        <lane id=":2143484020_3_0" index="0" allow="pedestrian delivery bicycle" speed="6.82" length="3.36" shape="447.85,444.78 450.39,445.95 450.77,446.36"/>
    </edge>
    <edge id=":2143484020_7" function="internal">
        <lane id=":2143484020_7_0" index="0" allow="pedestrian delivery bicycle" speed="6.82" length="6.74" shape="450.77,446.36 451.95,447.63 452.51,449.83 452.08,452.54"/>
    </edge>
    <edge id=":2143484020_4" function="internal">
        <lane id=":2143484020_4_0" index="0" allow="pedestrian delivery bicycle" speed="4.98" length="4.91" shape="449.03,451.59 449.23,450.28 448.94,449.23 448.18,448.41 446.93,447.84"/>
    </edge>
    <edge id=":2143484020_5" function="internal">
        <lane id=":2143484020_5_0" index="0" allow="pedestrian delivery bicycle" speed="6.82" length="10.10" shape="449.03,451.59 450.21,449.11 451.92,447.62 454.16,447.12 456.91,447.60"/>
    </edge>
    <edge id=":2143484020_6" function="internal">
        <lane id=":2143484020_6_0" index="0" allow="pedestrian delivery bicycle" speed="3.65" length="4.67" shape="449.03,451.59 450.15,450.68 451.03,450.54 451.67,451.15 452.08,452.54"/>
    </edge>
    <edge id=":2143484021_0" function="internal">
        <lane id=":2143484021_0_0" index="0" allow="pedestrian delivery bicycle" speed="5.56" length="12.37" shape="438.39,454.83 434.63,453.24 432.20,451.31 431.08,449.03 431.29,446.40"/>
    </edge>
    <edge id=":2143484021_1" function="internal">
        <lane id=":2143484021_1_0" index="0" allow="pedestrian delivery bicycle" speed="3.65" length="1.44" shape="438.39,454.83 437.49,453.70"/>
    </edge>
    <edge id=":2143484021_4" function="internal">
        <lane id=":2143484021_4_0" index="0" allow="pedestrian delivery bicycle" speed="3.65" length="3.23" shape="437.49,453.70 437.35,452.82 437.98,452.18 439.36,451.78"/>
    </edge>
    <edge id=":2143484021_2" function="internal">
        <lane id=":2143484021_2_0" index="0" allow="pedestrian delivery bicycle" speed="5.56" length="7.33" shape="434.35,447.34 434.36,448.59 435.20,449.74 436.87,450.81 439.36,451.78"/>
    </edge>
    <edge id=":2143484021_3" function="internal">
        <lane id=":2143484021_3_0" index="0" allow="pedestrian delivery bicycle" speed="3.65" length="1.23" shape="434.35,447.34 433.39,448.12"/>
    </edge>
    <edge id=":2143484021_5" function="internal">
        <lane id=":2143484021_5_0" index="0" allow="pedestrian delivery bicycle" speed="3.65" length="3.44" shape="433.39,448.12 433.23,448.25 432.34,448.40 431.70,447.78 431.29,446.40"/>
    </edge>
    <edge id=":2143484022_0" function="internal">
        <lane id=":2143484022_0_0" index="0" allow="pedestrian delivery bicycle" speed="5.56" length="10.08" shape="452.04,452.67 450.86,455.13 449.15,456.62 446.92,457.13 444.17,456.66"/>
    </edge>
    <edge id=":2143484022_1" function="internal">
        <lane id=":2143484022_1_0" index="0" allow="pedestrian delivery bicycle" speed="3.65" length="1.44" shape="452.04,452.67 450.92,453.57"/>
    </edge>
    <edge id=":2143484022_4" function="internal">
        <lane id=":2143484022_4_0" index="0" allow="pedestrian delivery bicycle" speed="3.65" length="3.23" shape="450.92,453.57 450.04,453.72 449.39,453.10 448.99,451.71"/>
    </edge>
    <edge id=":2143484022_2" function="internal">
        <lane id=":2143484022_2_0" index="0" allow="pedestrian delivery bicycle" speed="4.99" length="4.90" shape="445.14,453.61 446.49,453.85 447.58,453.61 448.41,452.90 448.99,451.71"/>
    </edge>
    <edge id=":2143484022_3" function="internal">
        <lane id=":2143484022_3_0" index="0" allow="pedestrian delivery bicycle" speed="3.65" length="1.31" shape="445.14,453.61 445.95,454.63"/>
    </edge>
    <edge id=":2143484022_5" function="internal">