<?xml version="1.0" encoding="UTF-8"?>

<!-- generated on 2025-03-01 00:23:11 by Eclipse SUMO netedit Version 1.21.0
<neteditConfiguration xmlns:xsi="http://www.w3.org/2001/XMLSchema-instance" xsi:noNamespaceSchemaLocation="http://sumo.dlr.de/xsd/neteditConfiguration.xsd">

    <input>
        <sumocfg-file value="C:\Users\clara\TrafficLightRL\Waterloo\Network\waterloo.sumocfg"/>
        <additional-files value=""/>
        <route-files value=""/>
        <sumo-net-file value="C:\Users\clara\TrafficLightRL\Waterloo\Network\waterloo.net.xml"/>
    </input>

    <output>
        <output-file value="C:\Users\clara\TrafficLightRL\Waterloo\Network\waterloo.net.xml"/>
        <output.street-names value="true"/>
    </output>

    <processing>
        <geometry.min-radius.fix.railways value="false"/>
        <geometry.max-grade.fix value="false"/>
        <offset.disable-normalization value="true"/>
        <lefthand value="0"/>
    </processing>

    <junctions>
        <no-turnarounds value="true"/>
        <junctions.corner-detail value="5"/>
        <junctions.limit-turn-speed value="5.50"/>
        <rectangular-lane-cut value="0"/>
    </junctions>

    <pedestrian>
        <walkingareas value="0"/>
    </pedestrian>

    <netedit>
        <ignore.routeelements value="false"/>
    </netedit>

</neteditConfiguration>
-->

<net version="1.20" junctionCornerDetail="5" limitTurnSpeed="5.50" xmlns:xsi="http://www.w3.org/2001/XMLSchema-instance" xsi:noNamespaceSchemaLocation="http://sumo.dlr.de/xsd/net_file.xsd">

    <location netOffset="-536431.14,-4813463.70" convBoundary="0.00,0.00,538.60,316.55" origBoundary="-80.549562,43.473199,-80.542887,43.476027" projParameter="+proj=utm +zone=17 +ellps=WGS84 +datum=WGS84 +units=m +no_defs"/>

    <type id="highway.cycleway" priority="1" numLanes="1" speed="5.56" allow="bicycle" oneway="0" width="2.00"/>
    <type id="highway.footway" priority="1" numLanes="1" speed="2.78" allow="pedestrian" oneway="1" width="2.00"/>
    <type id="highway.path" priority="1" numLanes="1" speed="5.56" allow="pedestrian bicycle" oneway="0" width="2.00"/>
    <type id="highway.secondary" priority="11" numLanes="1" speed="27.78" disallow="tram rail_urban rail rail_electric rail_fast ship container cable_car subway aircraft wheelchair scooter drone" oneway="0"/>
    <type id="highway.service" priority="1" numLanes="1" speed="5.56" allow="pedestrian delivery bicycle" oneway="0"/>
    <type id="highway.steps" priority="1" numLanes="1" speed="1.39" allow="pedestrian" oneway="1" width="2.00"/>
    <type id="highway.tertiary" priority="10" numLanes="1" speed="22.22" disallow="tram rail_urban rail rail_electric rail_fast ship container cable_car subway aircraft wheelchair scooter drone" oneway="0"/>
    <type id="highway.tertiary_link" priority="5" numLanes="1" speed="22.22" disallow="tram rail_urban rail rail_electric rail_fast ship container cable_car subway aircraft wheelchair scooter drone" oneway="0"/>
    <type id="highway.unclassified" priority="4" numLanes="1" speed="13.89" disallow="tram rail_urban rail rail_electric rail_fast ship container cable_car subway aircraft wheelchair scooter drone" oneway="0"/>
    <type id="railway.light_rail" priority="19" numLanes="1" speed="27.78" allow="rail_urban" oneway="1"/>
    <type id="railway.rail" priority="20" numLanes="1" speed="44.44" allow="rail" oneway="1"/>

    <edge id=":10211377494_0" function="internal">
        <lane id=":10211377494_0_0" index="0" allow="pedestrian bicycle" speed="2.89" length="2.92" width="2.00" shape="87.47,15.75 87.50,14.85 87.80,14.38 88.36,14.33 89.17,14.71"/>
    </edge>
    <edge id=":10211377495_0" function="internal">
        <lane id=":10211377495_0_0" index="0" allow="pedestrian delivery bicycle" speed="5.56" length="7.00" shape="102.26,31.41 96.29,35.06"/>
    </edge>
    <edge id=":10211377495_1" function="internal">
        <lane id=":10211377495_1_0" index="0" allow="pedestrian bicycle" speed="5.56" length="8.76" width="2.00" shape="102.26,31.41 100.38,32.10 98.56,31.82 96.82,30.58 95.14,28.37"/>
    </edge>
    <edge id=":10211377495_2" function="internal">
        <lane id=":10211377495_2_0" index="0" allow="pedestrian delivery bicycle" speed="3.65" length="4.67" shape="102.26,31.41 100.82,31.35 100.07,30.88 99.99,29.99 100.60,28.68"/>
    </edge>
    <edge id=":10211377495_3" function="internal">
        <lane id=":10211377495_3_0" index="0" allow="pedestrian bicycle" speed="4.66" length="4.53" width="2.00" shape="96.85,27.33 97.69,28.41 98.59,28.99 99.56,29.08 100.60,28.68"/>
    </edge>
    <edge id=":10211377495_4" function="internal">
        <lane id=":10211377495_4_0" index="0" allow="pedestrian bicycle" speed="5.56" length="8.76" width="2.00" shape="96.85,27.33 98.04,29.83 98.35,31.96 97.76,33.70 96.29,35.06"/>
    </edge>
    <edge id=":10211377495_5" function="internal">
        <lane id=":10211377495_5_0" index="0" allow="pedestrian bicycle" speed="2.89" length="2.92" width="2.00" shape="96.85,27.33 96.81,28.23 96.52,28.71 95.96,28.75 95.14,28.37"/>
    </edge>
    <edge id=":10211377495_6" function="internal">
        <lane id=":10211377495_6_0" index="0" allow="pedestrian bicycle" speed="4.84" length="4.53" width="2.00" shape="94.62,32.32 95.45,31.59 95.82,30.69 95.71,29.61 95.14,28.37"/>
    </edge>
    <edge id=":10211377495_7" function="internal">
        <lane id=":10211377495_7_0" index="0" allow="pedestrian delivery bicycle" speed="5.56" length="7.00" shape="94.62,32.32 100.60,28.68"/>
    </edge>
    <edge id=":10211377495_8" function="internal">
        <lane id=":10211377495_8_0" index="0" allow="pedestrian delivery bicycle" speed="3.65" length="4.67" shape="94.62,32.32 96.06,32.38 96.82,32.86 96.90,33.75 96.29,35.06"/>
    </edge>
    <edge id=":11956728415_0" function="internal">
        <lane id=":11956728415_0_0" index="0" allow="pedestrian bicycle" speed="2.89" length="2.92" width="2.00" shape="209.17,305.91 208.39,306.36 207.83,306.36 207.49,305.92 207.38,305.02"/>
    </edge>
    <edge id=":1503534611_0" function="internal">
        <lane id=":1503534611_0_0" index="0" allow="pedestrian bicycle" speed="2.89" length="2.92" width="2.00" shape="305.40,56.11 306.17,56.58 306.44,57.07 306.21,57.58 305.48,58.11"/>
    </edge>
    <edge id=":1503542035_0" function="internal">
        <lane id=":1503542035_0_0" index="0" allow="pedestrian delivery bicycle" speed="5.56" length="9.41" shape="484.13,142.89 479.90,151.30"/>
    </edge>
    <edge id=":1503542035_1" function="internal">
        <lane id=":1503542035_1_0" index="0" allow="pedestrian delivery bicycle" speed="5.56" length="10.17" shape="484.13,142.89 482.54,145.17 480.60,146.40 478.31,146.58 475.65,145.70"/>
    </edge>
    <edge id=":1503542035_2" function="internal">
        <lane id=":1503542035_2_0" index="0" allow="pedestrian delivery bicycle" speed="3.65" length="4.67" shape="484.13,142.89 482.88,143.61 481.98,143.61 481.44,142.89 481.27,141.46"/>
    </edge>
    <edge id=":1503542035_3" function="internal">
        <lane id=":1503542035_3_0" index="0" allow="pedestrian delivery bicycle" speed="5.06" length="5.03" shape="477.07,142.83 478.39,143.27 479.53,143.18 480.49,142.58 481.27,141.46"/>
    </edge>
    <edge id=":1503542035_4" function="internal">
        <lane id=":1503542035_4_0" index="0" allow="pedestrian delivery bicycle" speed="5.56" length="10.20" shape="477.07,142.83 479.38,144.41 480.62,146.35 480.79,148.65 479.90,151.30"/>
    </edge>
    <edge id=":1503542035_5" function="internal">
        <lane id=":1503542035_5_0" index="0" allow="pedestrian delivery bicycle" speed="3.65" length="4.67" shape="477.07,142.83 477.79,144.08 477.80,144.98 477.08,145.52 475.65,145.70"/>
    </edge>
    <edge id=":1503542035_6" function="internal">
        <lane id=":1503542035_6_0" index="0" allow="pedestrian delivery bicycle" speed="5.03" length="5.01" shape="477.04,149.86 477.48,148.56 477.40,147.43 476.79,146.48 475.65,145.70"/>
    </edge>
    <edge id=":1503542035_7" function="internal">
        <lane id=":1503542035_7_0" index="0" allow="pedestrian delivery bicycle" speed="5.56" length="9.40" shape="477.04,149.86 481.27,141.46"/>
    </edge>
    <edge id=":1503542035_8" function="internal">
        <lane id=":1503542035_8_0" index="0" allow="pedestrian delivery bicycle" speed="3.65" length="4.67" shape="477.04,149.86 478.30,149.15 479.19,149.15 479.73,149.87 479.90,151.30"/>
    </edge>
    <edge id=":1503542059_0" function="internal">
        <lane id=":1503542059_0_0" index="0" allow="pedestrian delivery bicycle" speed="5.56" length="4.89" shape="487.82,134.19 487.53,135.61 487.25,136.56 486.85,137.47 486.20,138.77"/>
    </edge>
    <edge id=":1503542059_1" function="internal">
        <lane id=":1503542059_1_0" index="0" allow="pedestrian delivery bicycle" speed="3.65" length="4.67" shape="487.82,134.19 486.82,135.23 485.95,135.47 485.24,134.93 484.68,133.60"/>
    </edge>
    <edge id=":1503542059_2" function="internal">
        <lane id=":1503542059_2_0" index="0" allow="pedestrian delivery bicycle" speed="5.56" length="3.99" shape="483.34,137.34 483.87,136.28 484.20,135.53 484.44,134.76 484.68,133.60"/>
    </edge>
    <edge id=":1503542059_3" function="internal">
        <lane id=":1503542059_3_0" index="0" allow="pedestrian delivery bicycle" speed="3.65" length="4.67" shape="483.34,137.34 484.59,136.62 485.48,136.62 486.02,137.34 486.20,138.77"/>
    </edge>
    <edge id=":1503542076_0" function="internal">
        <lane id=":1503542076_0_0" index="0" disallow="tram rail_urban rail rail_electric rail_fast ship container cable_car subway aircraft wheelchair scooter drone" speed="11.11" length="7.79" shape="340.28,122.77 333.37,119.18"/>
    </edge>
    <edge id=":1503542076_1" function="internal">
        <lane id=":1503542076_1_0" index="0" disallow="tram rail_urban rail rail_electric rail_fast ship container cable_car subway aircraft wheelchair scooter drone" speed="11.11" length="7.83" shape="334.83,116.33 341.78,119.95"/>
    </edge>
    <edge id=":1503542085_0" function="internal">
        <lane id=":1503542085_0_0" index="0" allow="pedestrian delivery bicycle" speed="5.56" length="1.42" shape="535.11,78.24 534.78,78.50 534.54,78.66 534.28,78.79 533.89,78.95"/>
    </edge>
    <edge id=":1503542085_1" function="internal">
        <lane id=":1503542085_1_0" index="0" allow="pedestrian delivery bicycle" speed="5.56" length="0.47" shape="532.70,75.98 532.83,75.93 532.92,75.89 533.00,75.83 533.11,75.74"/>
    </edge>
    <edge id=":1503542087_0" function="internal">
        <lane id=":1503542087_0_0" index="0" allow="pedestrian delivery bicycle" speed="5.10" length="4.94" shape="518.08,80.28 516.79,79.92 515.67,80.05 514.73,80.66 513.96,81.77"/>
    </edge>
    <edge id=":1503542087_1" function="internal">
        <lane id=":1503542087_1_0" index="0" allow="pedestrian delivery bicycle" speed="5.56" length="8.98" shape="518.08,80.28 515.65,79.21 514.02,78.36 512.53,77.31 510.48,75.61"/>
    </edge>
    <edge id=":1503542087_2" function="internal">
        <lane id=":1503542087_2_0" index="0" allow="pedestrian delivery bicycle" speed="3.65" length="4.67" shape="518.08,80.28 517.30,79.07 517.26,78.18 517.94,77.60 519.36,77.35"/>
    </edge>
    <edge id=":1503542087_3" function="internal">
        <lane id=":1503542087_3_0" index="0" allow="pedestrian delivery bicycle" speed="5.56" length="8.03" shape="512.57,73.18 514.39,74.70 515.73,75.64 517.19,76.39 519.36,77.35"/>
    </edge>
    <edge id=":1503542087_4" function="internal">
        <lane id=":1503542087_4_0" index="0" allow="pedestrian delivery bicycle" speed="5.56" length="9.48" shape="512.57,73.18 514.15,75.00 514.91,77.04 514.85,79.29 513.96,81.77"/>
    </edge>
    <edge id=":1503542087_5" function="internal">
        <lane id=":1503542087_5_0" index="0" allow="pedestrian delivery bicycle" speed="3.65" length="4.67" shape="512.57,73.18 512.96,74.57 512.74,75.43 511.92,75.78 510.48,75.61"/>
    </edge>
    <edge id=":1503542087_6" function="internal">
        <lane id=":1503542087_6_0" index="0" allow="pedestrian delivery bicycle" speed="5.56" length="5.18" shape="511.10,80.33 511.62,78.93 511.68,77.68 511.31,76.57 510.48,75.61"/>
    </edge>
    <edge id=":1503542087_7" function="internal">
        <lane id=":1503542087_7_0" index="0" allow="pedestrian delivery bicycle" speed="5.56" length="9.90" shape="511.10,80.33 512.64,78.12 514.53,76.88 516.77,76.63 519.36,77.35"/>
    </edge>
    <edge id=":1503542087_8" function="internal">
        <lane id=":1503542087_8_0" index="0" allow="pedestrian delivery bicycle" speed="3.65" length="4.67" shape="511.10,80.33 512.36,79.61 513.25,79.62 513.78,80.33 513.96,81.77"/>
    </edge>
    <edge id=":1503542098_0" function="internal">
        <lane id=":1503542098_0_0" index="0" allow="pedestrian delivery bicycle" speed="5.56" length="9.40" shape="476.02,158.96 471.76,167.34"/>
    </edge>
    <edge id=":1503542098_1" function="internal">
        <lane id=":1503542098_1_0" index="0" allow="pedestrian delivery bicycle" speed="5.56" length="10.16" shape="476.02,158.96 474.42,161.24 472.48,162.46 470.19,162.62 467.55,161.73"/>
    </edge>
    <edge id=":1503542098_2" function="internal">
        <lane id=":1503542098_2_0" index="0" allow="pedestrian delivery bicycle" speed="3.65" length="4.67" shape="476.02,158.96 474.76,159.67 473.87,159.66 473.34,158.94 473.17,157.51"/>
    </edge>
    <edge id=":1503542098_3" function="internal">
        <lane id=":1503542098_3_0" index="0" allow="pedestrian delivery bicycle" speed="5.05" length="5.01" shape="468.99,158.87 470.29,159.31 471.42,159.23 472.38,158.63 473.17,157.51"/>
    </edge>
    <edge id=":1503542098_4" function="internal">
        <lane id=":1503542098_4_0" index="0" allow="pedestrian delivery bicycle" speed="5.56" length="10.17" shape="468.99,158.87 471.27,160.47 472.50,162.41 472.66,164.70 471.76,167.34"/>
    </edge>
    <edge id=":1503542098_5" function="internal">
        <lane id=":1503542098_5_0" index="0" allow="pedestrian delivery bicycle" speed="3.65" length="4.67" shape="468.99,158.87 469.70,160.12 469.70,161.02 468.98,161.55 467.55,161.73"/>
    </edge>
    <edge id=":1503542098_6" function="internal">
        <lane id=":1503542098_6_0" index="0" allow="pedestrian delivery bicycle" speed="5.04" length="5.00" shape="468.91,165.89 469.35,164.59 469.27,163.47 468.67,162.51 467.55,161.73"/>
    </edge>
    <edge id=":1503542098_7" function="internal">
        <lane id=":1503542098_7_0" index="0" allow="pedestrian delivery bicycle" speed="5.56" length="9.40" shape="468.91,165.89 473.17,157.51"/>
    </edge>
    <edge id=":1503542098_8" function="internal">
        <lane id=":1503542098_8_0" index="0" allow="pedestrian delivery bicycle" speed="3.65" length="4.67" shape="468.91,165.89 470.17,165.18 471.06,165.19 471.59,165.91 471.76,167.34"/>
    </edge>
    <edge id=":1503542111_0" function="internal">
        <lane id=":1503542111_0_0" index="0" disallow="tram rail_urban rail rail_electric rail_fast ship container cable_car subway aircraft wheelchair scooter drone" speed="11.11" length="5.61" shape="516.04,189.63 510.59,190.99"/>
    </edge>
    <edge id=":1503542111_1" function="internal">
        <lane id=":1503542111_1_0" index="0" disallow="tram rail_urban rail rail_electric rail_fast ship container cable_car subway aircraft wheelchair scooter drone" speed="11.11" length="5.36" shape="509.93,187.86 515.13,186.56"/>
    </edge>
    <edge id=":1503542128_0" function="internal">
        <lane id=":1503542128_0_0" index="0" allow="pedestrian delivery bicycle" speed="3.65" length="4.67" shape="523.46,133.49 524.20,134.73 524.22,135.63 523.51,136.18 522.08,136.39"/>
    </edge>
    <edge id=":1505820848_0" function="internal">
        <lane id=":1505820848_0_0" index="0" allow="pedestrian delivery bicycle" speed="5.03" length="5.01" shape="170.67,60.84 169.37,60.39 168.24,60.47 167.29,61.07 166.50,62.20"/>
    </edge>
    <edge id=":1505820848_1" function="internal">
        <lane id=":1505820848_1_0" index="0" allow="pedestrian delivery bicycle" speed="3.65" length="4.67" shape="170.67,60.84 169.97,59.58 169.97,58.68 170.69,58.15 172.13,57.99"/>
    </edge>
    <edge id=":1505820848_2" function="internal">
        <lane id=":1505820848_2_0" index="0" allow="pedestrian delivery bicycle" speed="5.56" length="10.20" shape="163.64,60.77 165.24,58.47 167.18,57.24 169.48,57.08 172.13,57.99"/>
    </edge>
    <edge id=":1505820848_3" function="internal">
        <lane id=":1505820848_3_0" index="0" allow="pedestrian delivery bicycle" speed="3.65" length="4.67" shape="163.64,60.77 164.89,60.05 165.79,60.06 166.32,60.77 166.50,62.20"/>
    </edge>
    <edge id=":1505820852_0" function="internal">
        <lane id=":1505820852_0_0" index="0" allow="pedestrian delivery bicycle" speed="5.56" length="10.35" shape="240.75,92.54 243.09,94.17 244.31,96.15 244.42,98.47 243.41,101.14"/>
    </edge>
    <edge id=":1505820852_1" function="internal">
        <lane id=":1505820852_1_0" index="0" allow="pedestrian delivery bicycle" speed="3.65" length="4.67" shape="240.75,92.54 241.46,93.80 241.46,94.69 240.74,95.23 239.31,95.40"/>
    </edge>
    <edge id=":1505820852_2" function="internal">
        <lane id=":1505820852_2_0" index="0" allow="pedestrian delivery bicycle" speed="5.00" length="5.05" shape="240.61,99.59 241.10,98.29 241.05,97.16 240.45,96.20 239.31,95.40"/>
    </edge>
    <edge id=":1505820852_3" function="internal">
        <lane id=":1505820852_3_0" index="0" allow="pedestrian delivery bicycle" speed="3.65" length="4.67" shape="240.61,99.59 241.89,98.93 242.78,98.96 243.29,99.70 243.41,101.14"/>
    </edge>
    <edge id=":1505820859_0" function="internal">
        <lane id=":1505820859_0_0" index="0" allow="pedestrian delivery bicycle" speed="3.65" length="4.67" shape="206.71,79.01 206.00,77.76 206.00,76.86 206.72,76.33 208.15,76.15"/>
    </edge>
    <edge id=":1505820896_0" function="internal">
        <lane id=":1505820896_0_0" index="0" allow="pedestrian delivery bicycle" speed="3.65" length="4.67" shape="185.88,65.03 186.58,66.28 186.57,67.18 185.85,67.71 184.42,67.87"/>
    </edge>
    <edge id=":1505820907_0" function="internal">
        <lane id=":1505820907_0_0" index="0" allow="pedestrian delivery bicycle" speed="5.56" length="9.38" shape="192.61,91.45 184.22,87.24"/>
    </edge>
    <edge id=":1505820907_1" function="internal">
        <lane id=":1505820907_1_0" index="0" allow="pedestrian delivery bicycle" speed="5.56" length="10.15" shape="192.61,91.45 190.33,89.86 189.10,87.92 188.93,85.63 189.81,82.99"/>
    </edge>
    <edge id=":1505820907_2" function="internal">
        <lane id=":1505820907_2_0" index="0" allow="pedestrian delivery bicycle" speed="3.65" length="4.67" shape="192.61,91.45 191.89,90.19 191.90,89.30 192.61,88.77 194.05,88.59"/>
    </edge>
    <edge id=":1505820907_3" function="internal">
        <lane id=":1505820907_3_0" index="0" allow="pedestrian delivery bicycle" speed="5.05" length="5.01" shape="192.67,84.42 192.24,85.72 192.32,86.85 192.92,87.81 194.05,88.59"/>
    </edge>
    <edge id=":1505820907_4" function="internal">
        <lane id=":1505820907_4_0" index="0" allow="pedestrian delivery bicycle" speed="5.56" length="10.16" shape="192.67,84.42 191.09,86.71 189.15,87.94 186.86,88.12 184.22,87.24"/>
    </edge>
    <edge id=":1505820907_5" function="internal">
        <lane id=":1505820907_5_0" index="0" allow="pedestrian delivery bicycle" speed="3.65" length="4.67" shape="192.67,84.42 191.42,85.14 190.53,85.14 189.99,84.42 189.81,82.99"/>
    </edge>
    <edge id=":1505820907_6" function="internal">
        <lane id=":1505820907_6_0" index="0" allow="pedestrian delivery bicycle" speed="5.04" length="5.00" shape="185.65,84.38 186.95,84.81 188.08,84.72 189.03,84.12 189.81,82.99"/>
    </edge>
    <edge id=":1505820907_7" function="internal">
        <lane id=":1505820907_7_0" index="0" allow="pedestrian delivery bicycle" speed="5.56" length="9.39" shape="185.65,84.38 194.05,88.59"/>
    </edge>
    <edge id=":1505820907_8" function="internal">
        <lane id=":1505820907_8_0" index="0" allow="pedestrian delivery bicycle" speed="3.65" length="4.67" shape="185.65,84.38 186.37,85.63 186.37,86.52 185.65,87.06 184.22,87.24"/>
    </edge>
    <edge id=":1505832350_0" function="internal">
        <lane id=":1505832350_0_0" index="0" allow="pedestrian bicycle" speed="5.56" length="5.41" width="1.25" shape="517.07,269.96 517.09,269.08 517.49,268.00 518.28,266.72 519.44,265.25"/>
    </edge>
    <edge id=":1505832350_1" function="internal">
        <lane id=":1505832350_1_0" index="0" allow="pedestrian bicycle" speed="2.89" length="2.92" width="2.00" shape="517.07,269.96 517.40,269.12 517.83,268.77 518.37,268.90 519.02,269.53"/>
    </edge>
    <edge id=":1505832350_2" function="internal">
        <lane id=":1505832350_2_0" index="0" allow="pedestrian bicycle" speed="5.56" length="3.84" width="1.25" shape="520.39,266.07 519.67,267.02 519.20,267.91 518.99,268.75 519.02,269.53"/>
    </edge>
    <edge id=":1505832350_3" function="internal">
        <lane id=":1505832350_3_0" index="0" allow="pedestrian bicycle" speed="2.28" length="1.83" width="1.25" shape="520.39,266.07 519.85,266.22 519.51,266.13 519.37,265.81 519.44,265.25"/>
    </edge>
    <edge id=":1551340099_0" function="internal">
        <lane id=":1551340099_0_0" index="0" allow="pedestrian delivery bicycle" speed="5.28" length="5.34" shape="129.28,278.02 127.99,277.61 126.82,277.76 125.77,278.46 124.84,279.70"/>
    </edge>
    <edge id=":1551340099_1" function="internal">
        <lane id=":1551340099_1_0" index="0" allow="pedestrian delivery bicycle" speed="5.56" length="9.57" shape="129.28,278.02 126.83,276.65 125.35,275.38 124.25,273.72 122.94,271.21"/>
    </edge>
    <edge id=":1551340099_2" function="internal">
        <lane id=":1551340099_2_0" index="0" allow="pedestrian delivery bicycle" speed="3.65" length="4.67" shape="129.28,278.02 128.56,276.76 128.56,275.87 129.28,275.33 130.71,275.15"/>
    </edge>
    <edge id=":1551340099_3" function="internal">
        <lane id=":1551340099_3_0" index="0" allow="pedestrian delivery bicycle" speed="5.56" length="6.54" shape="126.18,270.74 126.59,271.88 127.48,273.00 128.85,274.09 130.71,275.15"/>
    </edge>
    <edge id=":1551340099_4" function="internal">
        <lane id=":1551340099_4_0" index="0" allow="pedestrian delivery bicycle" speed="5.56" length="9.36" shape="126.18,270.74 126.56,273.48 126.60,275.43 126.09,277.27 124.84,279.70"/>
    </edge>
    <edge id=":1551340099_5" function="internal">
        <lane id=":1551340099_5_0" index="0" allow="pedestrian delivery bicycle" speed="3.84" length="4.78" shape="126.18,270.74 125.55,272.07 124.80,272.59 123.93,272.30 122.94,271.21"/>
    </edge>
    <edge id=":1551340099_6" function="internal">
        <lane id=":1551340099_6_0" index="0" allow="pedestrian delivery bicycle" speed="5.56" length="8.57" shape="121.56,278.95 123.04,277.26 123.77,275.40 123.73,273.39 122.94,271.21"/>
    </edge>
    <edge id=":1551340099_7" function="internal">
        <lane id=":1551340099_7_0" index="0" allow="pedestrian delivery bicycle" speed="5.56" length="10.36" shape="121.56,278.95 124.43,276.72 126.91,275.35 129.01,274.82 130.71,275.15"/>
    </edge>
    <edge id=":1551340099_8" function="internal">
        <lane id=":1551340099_8_0" index="0" allow="pedestrian delivery bicycle" speed="3.87" length="4.90" shape="121.56,278.95 122.66,277.91 123.57,277.69 124.30,278.28 124.84,279.70"/>
    </edge>
    <edge id=":1551340152_0" function="internal">
        <lane id=":1551340152_0_0" index="0" allow="pedestrian delivery bicycle" speed="5.56" length="9.46" shape="172.45,211.25 163.96,207.08"/>
    </edge>
    <edge id=":1551340152_1" function="internal">
        <lane id=":1551340152_1_0" index="0" allow="pedestrian delivery bicycle" speed="5.56" length="10.23" shape="172.45,211.25 170.12,209.68 168.86,207.74 168.68,205.44 169.57,202.78"/>
    </edge>
    <edge id=":1551340152_2" function="internal">
        <lane id=":1551340152_2_0" index="0" allow="pedestrian delivery bicycle" speed="3.65" length="4.67" shape="172.45,211.25 171.72,210.00 171.70,209.11 172.41,208.56 173.84,208.37"/>
    </edge>
    <edge id=":1551340152_3" function="internal">
        <lane id=":1551340152_3_0" index="0" allow="pedestrian delivery bicycle" speed="5.02" length="5.02" shape="172.43,204.21 171.99,205.52 172.08,206.65 172.70,207.60 173.84,208.37"/>
    </edge>
    <edge id=":1551340152_4" function="internal">
        <lane id=":1551340152_4_0" index="0" allow="pedestrian delivery bicycle" speed="5.56" length="10.19" shape="172.43,204.21 170.83,206.52 168.89,207.77 166.60,207.95 163.96,207.08"/>
    </edge>
    <edge id=":1551340152_5" function="internal">
        <lane id=":1551340152_5_0" index="0" allow="pedestrian delivery bicycle" speed="3.65" length="4.67" shape="172.43,204.21 171.18,204.93 170.28,204.93 169.75,204.21 169.57,202.78"/>
    </edge>
    <edge id=":1551340152_6" function="internal">
        <lane id=":1551340152_6_0" index="0" allow="pedestrian delivery bicycle" speed="5.06" length="5.04" shape="165.39,204.22 166.69,204.64 167.82,204.55 168.78,203.93 169.57,202.78"/>
    </edge>
    <edge id=":1551340152_7" function="internal">
        <lane id=":1551340152_7_0" index="0" allow="pedestrian delivery bicycle" speed="5.56" length="9.42" shape="165.39,204.22 173.84,208.37"/>
    </edge>
    <edge id=":1551340152_8" function="internal">
        <lane id=":1551340152_8_0" index="0" allow="pedestrian delivery bicycle" speed="3.65" length="4.67" shape="165.39,204.22 166.10,205.47 166.10,206.36 165.39,206.90 163.96,207.08"/>
    </edge>
    <edge id=":1551340154_0" function="internal">
        <lane id=":1551340154_0_0" index="0" allow="pedestrian delivery bicycle" speed="13.89" length="9.18" shape="199.64,313.78 191.64,309.29"/>
    </edge>
    <edge id=":1551340154_1" function="internal">
        <lane id=":1551340154_1_0" index="0" allow="pedestrian delivery bicycle" speed="3.65" length="4.67" shape="199.64,313.78 199.02,312.48 199.08,311.58 199.84,311.10 201.28,311.02"/>
    </edge>
    <edge id=":1551340154_2" function="internal">
        <lane id=":1551340154_2_0" index="0" allow="pedestrian delivery bicycle" speed="5.22" length="5.15" shape="200.18,306.57 199.69,307.95 199.71,309.15 200.24,310.17 201.28,311.02"/>
    </edge>
    <edge id=":1551340154_3" function="internal">
        <lane id=":1551340154_3_0" index="0" disallow="tram rail_urban rail rail_electric rail_fast ship container cable_car subway aircraft wheelchair scooter drone" speed="6.06" length="7.82" shape="197.32,305.13 195.89,307.51 194.47,309.00 193.05,309.59 191.64,309.29"/>
    </edge>
    <edge id=":1551340154_4" function="internal">
        <lane id=":1551340154_4_0" index="0" allow="pedestrian delivery bicycle" speed="13.89" length="9.33" shape="193.14,306.46 201.28,311.02"/>
    </edge>
    <edge id=":1551340154_5" function="internal">
        <lane id=":1551340154_5_0" index="0" disallow="tram rail_urban rail rail_electric rail_fast ship container cable_car subway aircraft wheelchair scooter drone" speed="3.65" length="4.67" shape="193.14,306.46 193.82,307.73 193.80,308.62 193.07,309.14 191.64,309.29"/>
    </edge>
    <edge id=":1551379865_0" function="internal">
        <lane id=":1551379865_0_0" index="0" allow="pedestrian bicycle" speed="2.89" length="2.92" width="2.00" shape="175.54,306.90 174.78,307.39 174.22,307.42 173.86,306.99 173.70,306.10"/>
    </edge>
    <edge id=":1572288291_0" function="internal">
        <lane id=":1572288291_0_0" index="0" allow="pedestrian delivery bicycle" speed="5.05" length="5.01" shape="126.74,168.96 125.43,168.53 124.30,168.61 123.35,169.22 122.57,170.34"/>
    </edge>
    <edge id=":1572288291_1" function="internal">
        <lane id=":1572288291_1_0" index="0" allow="pedestrian delivery bicycle" speed="5.56" length="10.17" shape="126.74,168.96 124.45,167.38 123.21,165.44 123.04,163.15 123.92,160.50"/>
    </edge>
    <edge id=":1572288291_2" function="internal">
        <lane id=":1572288291_2_0" index="0" allow="pedestrian delivery bicycle" speed="3.65" length="4.67" shape="126.74,168.96 126.02,167.71 126.02,166.82 126.74,166.28 128.17,166.10"/>
    </edge>
    <edge id=":1572288291_3" function="internal">
        <lane id=":1572288291_3_0" index="0" allow="pedestrian delivery bicycle" speed="5.04" length="5.00" shape="126.78,161.94 126.35,163.24 126.43,164.37 127.04,165.32 128.17,166.10"/>
    </edge>
    <edge id=":1572288291_4" function="internal">
        <lane id=":1572288291_4_0" index="0" allow="pedestrian delivery bicycle" speed="5.56" length="9.40" shape="126.78,161.94 122.57,170.34"/>
    </edge>
    <edge id=":1572288291_5" function="internal">
        <lane id=":1572288291_5_0" index="0" allow="pedestrian delivery bicycle" speed="3.65" length="4.67" shape="126.78,161.94 125.53,162.65 124.63,162.65 124.10,161.94 123.92,160.50"/>
    </edge>
    <edge id=":1572288291_6" function="internal">
        <lane id=":1572288291_6_0" index="0" allow="pedestrian delivery bicycle" speed="5.56" length="9.40" shape="119.71,168.90 123.92,160.50"/>
    </edge>
    <edge id=":1572288291_7" function="internal">
        <lane id=":1572288291_7_0" index="0" allow="pedestrian delivery bicycle" speed="5.56" length="10.16" shape="119.71,168.90 121.29,166.62 123.23,165.39 125.52,165.22 128.17,166.10"/>
    </edge>
    <edge id=":1572288291_8" function="internal">
        <lane id=":1572288291_8_0" index="0" allow="pedestrian delivery bicycle" speed="3.65" length="4.67" shape="119.71,168.90 120.96,168.19 121.85,168.19 122.39,168.91 122.57,170.34"/>
    </edge>
    <edge id=":1572288292_0" function="internal">