<?xml version="1.0" encoding="UTF-8"?>

<!-- generated on 2025-02-01 12:04:30 by Eclipse SUMO netedit Version 1.19.0
<configuration xmlns:xsi="http://www.w3.org/2001/XMLSchema-instance" xsi:noNamespaceSchemaLocation="http://sumo.dlr.de/xsd/neteditConfiguration.xsd">

    <input>
        <sumocfg-file value="C:\Users\li3018\TrafficLightRL\Queens\./network/queens.sumocfg"/>
        <additional-files value=""/>
        <route-files value=""/>
        <sumo-net-file value="C:\Users\li3018\TrafficLightRL\Queens\./network/queens.net.xml"/>
    </input>

    <output>
        <output-file value="C:\Users\li3018\TrafficLightRL\Queens\./network/queens.net.xml"/>
        <output.street-names value="true"/>
    </output>

    <processing>
        <geometry.min-radius.fix.railways value="false"/>
        <geometry.max-grade.fix value="false"/>
        <offset.disable-normalization value="true"/>
        <lefthand value="0"/>
    </processing>

    <junctions>
        <no-turnarounds value="true"/>
        <junctions.corner-detail value="5"/>
        <junctions.limit-turn-speed value="5.50"/>
        <rectangular-lane-cut value="0"/>
    </junctions>

    <pedestrian>
        <walkingareas value="0"/>
    </pedestrian>

    <netedit>
        <ignore.routeelements value="false"/>
    </netedit>

</configuration>
-->

<net version="1.16" junctionCornerDetail="5" limitTurnSpeed="5.50" xmlns:xsi="http://www.w3.org/2001/XMLSchema-instance" xsi:noNamespaceSchemaLocation="http://sumo.dlr.de/xsd/net_file.xsd">

    <location netOffset="-380229.09,-4897959.50" convBoundary="0.00,0.00,705.97,734.79" origBoundary="-76.499616,44.225075,-76.490786,44.231671" projParameter="+proj=utm +zone=18 +ellps=WGS84 +datum=WGS84 +units=m +no_defs"/>

    <type id="highway.footway" priority="1" numLanes="1" speed="2.78" allow="pedestrian" oneway="1" width="2.00"/>
    <type id="highway.path" priority="1" numLanes="1" speed="5.56" allow="pedestrian bicycle" oneway="0" width="2.00"/>
    <type id="highway.pedestrian" priority="1" numLanes="1" speed="2.78" allow="pedestrian" oneway="1" width="2.00"/>
    <type id="highway.residential" priority="3" numLanes="1" speed="13.89" disallow="tram rail_urban rail rail_electric rail_fast ship" oneway="0"/>
    <type id="highway.service" priority="1" numLanes="1" speed="5.56" allow="pedestrian delivery bicycle" oneway="0"/>
    <type id="highway.steps" priority="1" numLanes="1" speed="1.39" allow="pedestrian" oneway="1" width="2.00"/>
    <type id="highway.tertiary" priority="10" numLanes="1" speed="22.22" disallow="tram rail_urban rail rail_electric rail_fast ship" oneway="0"/>
    <type id="highway.unclassified" priority="4" numLanes="1" speed="13.89" disallow="tram rail_urban rail rail_electric rail_fast ship" oneway="0"/>

    <edge id=":108807643_0" function="internal">
        <lane id=":108807643_0_0" index="0" disallow="tram rail_urban rail rail_electric rail_fast ship" speed="11.11" length="5.55" shape="389.29,309.10 387.74,309.75 386.97,310.90 386.20,312.05 384.66,312.70"/>
        <lane id=":108807643_0_1" index="1" disallow="tram rail_urban rail rail_electric rail_fast ship" speed="11.11" length="5.55" shape="389.29,309.10 384.33,309.52"/>
    </edge>
    <edge id=":108807643_2" function="internal">
        <lane id=":108807643_2_0" index="0" disallow="tram rail_urban rail rail_electric rail_fast ship" speed="11.11" length="5.01" shape="383.96,305.95 385.44,306.09 386.45,306.13 387.47,306.07 388.95,305.92"/>
    </edge>
    <edge id=":1468838509_0" function="internal">
        <lane id=":1468838509_0_0" index="0" disallow="tram rail_urban rail rail_electric rail_fast ship" speed="11.11" length="8.33" shape="282.01,321.03 279.63,320.37 277.98,319.97 276.31,319.69 273.86,319.37"/>
    </edge>
    <edge id=":1468838509_1" function="internal">
        <lane id=":1468838509_1_0" index="0" disallow="tram rail_urban rail rail_electric rail_fast ship" speed="11.11" length="8.05" shape="274.26,316.19 276.60,316.02 278.12,315.13 279.64,314.13 281.99,313.61"/>
        <lane id=":1468838509_1_1" index="1" disallow="tram rail_urban rail rail_electric rail_fast ship" speed="11.11" length="8.05" shape="274.26,316.19 276.55,316.51 278.12,316.72 279.70,316.82 282.00,316.81"/>
    </edge>
    <edge id=":2164610677_0" function="internal">
        <lane id=":2164610677_0_0" index="0" allow="pedestrian bicycle" speed="2.89" length="2.92" width="2.00" shape="434.03,428.98 433.62,429.78 433.15,430.08 432.62,429.89 432.05,429.20"/>
    </edge>
    <edge id=":2164610681_0" function="internal">
        <lane id=":2164610681_0_0" index="0" allow="pedestrian bicycle" speed="2.89" length="2.92" width="2.00" shape="431.72,426.11 432.14,425.31 432.61,425.01 433.13,425.21 433.71,425.90"/>
    </edge>
    <edge id=":29604422_0" function="internal">
        <lane id=":29604422_0_0" index="0" disallow="tram rail_urban rail rail_electric rail_fast ship" speed="3.65" length="4.67" shape="705.79,272.16 707.07,272.82 707.56,273.57 707.25,274.41 706.15,275.34"/>
    </edge>
    <edge id=":30342097_0" function="internal">
        <lane id=":30342097_0_0" index="0" disallow="tram rail_urban rail rail_electric rail_fast ship" speed="3.65" length="4.67" shape="315.40,0.04 316.17,-1.18 316.96,-1.60 317.77,-1.22 318.60,-0.04"/>
    </edge>
    <edge id=":30342120_0" function="internal">
        <lane id=":30342120_0_0" index="0" disallow="tram rail_urban rail rail_electric rail_fast ship" speed="3.65" length="4.67" shape="209.21,734.87 208.35,736.03 207.53,736.39 206.75,735.95 206.01,734.71"/>
    </edge>
    <edge id=":305091352_0" function="internal">
        <lane id=":305091352_0_0" index="0" allow="pedestrian delivery bicycle" speed="5.05" length="4.99" shape="364.17,429.62 363.83,428.30 363.15,427.40 362.13,426.92 360.76,426.86"/>
    </edge>
    <edge id=":305091352_1" function="internal">
        <lane id=":305091352_1_0" index="0" allow="pedestrian delivery bicycle" speed="3.65" length="4.67" shape="364.17,429.62 364.83,428.34 365.59,427.85 366.42,428.16 367.35,429.27"/>
    </edge>
    <edge id=":305091352_2" function="internal">
        <lane id=":305091352_2_0" index="0" allow="pedestrian delivery bicycle" speed="6.87" length="10.12" shape="360.44,423.68 363.21,423.79 365.28,424.76 366.66,426.59 367.35,429.27"/>
    </edge>
    <edge id=":305091352_3" function="internal">
        <lane id=":305091352_3_0" index="0" disallow="tram rail_urban rail rail_electric rail_fast ship" speed="3.65" length="4.67" shape="360.44,423.68 361.72,424.35 362.19,425.11 361.88,425.94 360.76,426.86"/>
    </edge>
    <edge id=":387492710_0" function="internal">
        <lane id=":387492710_0_0" index="0" allow="pedestrian bicycle" speed="2.89" length="2.92" width="2.00" shape="256.57,305.32 255.89,305.92 255.34,306.03 254.92,305.65 254.64,304.80"/>
    </edge>
    <edge id=":401558735_0" function="internal">
        <lane id=":401558735_0_0" index="0" allow="pedestrian bicycle" speed="2.89" length="2.92" width="2.00" shape="450.60,288.81 450.11,289.56 449.61,289.82 449.11,289.58 448.60,288.84"/>
    </edge>
    <edge id=":465090738_0" function="internal">
        <lane id=":465090738_0_0" index="0" disallow="tram rail_urban rail rail_electric rail_fast ship" speed="3.65" length="4.67" shape="56.34,270.61 55.37,269.54 55.17,268.67 55.76,267.99 57.11,267.50"/>
    </edge>
    <edge id=":465090763_0" function="internal">
        <lane id=":465090763_0_0" index="0" disallow="tram rail_urban rail rail_electric rail_fast ship" speed="11.11" length="5.00" shape="138.05,290.45 133.18,289.33"/>
    </edge>
    <edge id=":465090763_1" function="internal">
        <lane id=":465090763_1_0" index="0" disallow="tram rail_urban rail rail_electric rail_fast ship" speed="11.11" length="5.00" shape="133.90,286.21 138.77,287.33"/>
    </edge>
    <edge id=":465090767_0" function="internal">
        <lane id=":465090767_0_0" index="0" allow="pedestrian bicycle" speed="2.89" length="2.92" width="2.00" shape="194.07,220.44 194.55,219.68 195.05,219.42 195.55,219.66 196.07,220.40"/>
    </edge>
    <edge id=":465101891_0" function="internal">
        <lane id=":465101891_0_0" index="0" allow="pedestrian bicycle" speed="2.89" length="2.92" width="2.00" shape="70.70,246.91 70.51,246.03 70.69,245.50 71.22,245.32 72.10,245.49"/>
    </edge>
    <edge id=":603252397_0" function="internal">
        <lane id=":603252397_0_0" index="0" allow="pedestrian delivery bicycle" speed="3.65" length="4.67" shape="370.05,526.80 369.28,528.01 368.48,528.43 367.68,528.05 366.85,526.86"/>
    </edge>
    <edge id=":6154666233_0" function="internal">
        <lane id=":6154666233_0_0" index="0" allow="pedestrian bicycle" speed="2.89" length="2.92" width="2.00" shape="196.69,229.71 196.36,230.55 195.93,230.90 195.38,230.76 194.74,230.13"/>
    </edge>
    <edge id=":6719078983_0" function="internal">
        <lane id=":6719078983_0_0" index="0" allow="pedestrian bicycle" speed="4.96" length="5.25" width="2.00" shape="448.07,256.17 447.80,255.08 447.05,254.31 445.81,253.88 444.07,253.77"/>
    </edge>
    <edge id=":6719078983_1" function="internal">
        <lane id=":6719078983_1_0" index="0" allow="pedestrian bicycle" speed="5.56" length="11.74" width="2.00" shape="448.07,256.17 447.69,253.01 446.74,250.60 445.31,248.34 443.50,245.59"/>
    </edge>
    <edge id=":6719078983_2" function="internal">
        <lane id=":6719078983_2_0" index="0" allow="pedestrian bicycle" speed="5.56" length="12.40" width="2.00" shape="448.07,256.17 447.81,243.77"/>
    </edge>
    <edge id=":6719078983_3" function="internal">
        <lane id=":6719078983_3_0" index="0" allow="pedestrian bicycle" speed="2.89" length="2.92" width="2.00" shape="448.07,256.17 448.56,255.41 449.05,255.15 449.55,255.39 450.07,256.14"/>
    </edge>
    <edge id=":6719078983_4" function="internal">
        <lane id=":6719078983_4_0" index="0" allow="pedestrian bicycle" speed="5.56" length="12.41" width="2.00" shape="449.81,243.73 450.07,256.14"/>
    </edge>
    <edge id=":6719078983_5" function="internal">
        <lane id=":6719078983_5_0" index="0" allow="pedestrian bicycle" speed="5.56" length="12.94" width="2.00" shape="449.81,243.73 449.53,248.06 448.49,251.17 446.67,253.08 444.07,253.77"/>
    </edge>
    <edge id=":6719078983_6" function="internal">
        <lane id=":6719078983_6_0" index="0" allow="pedestrian bicycle" speed="5.56" length="14.15" width="2.00" shape="449.81,243.73 449.52,248.56 448.37,250.48 446.37,249.49 443.50,245.59"/>
    </edge>
    <edge id=":6719078983_7" function="internal">
        <lane id=":6719078983_7_0" index="0" allow="pedestrian bicycle" speed="2.89" length="2.92" width="2.00" shape="449.81,243.73 449.33,244.49 448.83,244.75 448.33,244.51 447.81,243.77"/>
    </edge>
    <edge id=":6719078983_8" function="internal">
        <lane id=":6719078983_8_0" index="0" allow="pedestrian bicycle" speed="4.05" length="5.84" width="2.00" shape="445.21,244.54 446.39,246.15 447.22,246.56 447.69,245.77 447.81,243.77"/>
    </edge>
    <edge id=":6719078983_9" function="internal">
        <lane id=":6719078983_9_0" index="0" allow="pedestrian bicycle" speed="5.56" length="12.77" width="2.00" shape="445.21,244.54 447.06,247.45 448.59,250.06 449.64,252.81 450.07,256.14"/>
    </edge>
    <edge id=":6719078983_10" function="internal">
        <lane id=":6719078983_10_0" index="0" allow="pedestrian bicycle" speed="5.56" length="12.05" width="2.00" shape="445.21,244.54 447.22,248.51 447.70,251.37 446.66,253.12 444.07,253.77"/>
    </edge>
    <edge id=":6719078983_11" function="internal">
        <lane id=":6719078983_11_0" index="0" allow="pedestrian bicycle" speed="2.89" length="2.92" width="2.00" shape="445.21,244.54 445.17,245.44 444.88,245.92 444.32,245.97 443.50,245.59"/>
    </edge>
    <edge id=":6719078983_12" function="internal">
        <lane id=":6719078983_12_0" index="0" allow="pedestrian bicycle" speed="5.02" length="7.49" width="2.00" shape="444.02,251.77 445.20,251.35 445.51,250.18 444.94,248.26 443.50,245.59"/>
    </edge>
    <edge id=":6719078983_13" function="internal">
        <lane id=":6719078983_13_0" index="0" allow="pedestrian bicycle" speed="5.56" length="9.78" width="2.00" shape="444.02,251.77 445.74,251.23 446.95,249.71 447.64,247.23 447.81,243.77"/>
    </edge>
    <edge id=":6719078983_14" function="internal">
        <lane id=":6719078983_14_0" index="0" allow="pedestrian bicycle" speed="5.56" length="8.48" width="2.00" shape="444.02,251.77 446.64,251.98 448.52,252.78 449.66,254.16 450.07,256.14"/>
    </edge>
    <edge id=":6719078983_15" function="internal">
        <lane id=":6719078983_15_0" index="0" allow="pedestrian bicycle" speed="2.89" length="2.92" width="2.00" shape="444.02,251.77 444.78,252.25 445.04,252.74 444.81,253.25 444.07,253.77"/>
    </edge>
    <edge id=":6719078984_0" function="internal">
        <lane id=":6719078984_0_0" index="0" allow="pedestrian bicycle" speed="5.56" length="9.36" width="2.00" shape="447.49,229.34 447.22,219.98"/>
    </edge>
    <edge id=":6719078984_1" function="internal">
        <lane id=":6719078984_1_0" index="0" allow="pedestrian bicycle" speed="5.56" length="8.75" width="2.00" shape="447.49,229.34 447.70,226.58 448.50,224.59 449.88,223.38 451.84,222.94"/>
    </edge>
    <edge id=":6719078984_2" function="internal">
        <lane id=":6719078984_2_0" index="0" allow="pedestrian bicycle" speed="2.89" length="2.92" width="2.00" shape="447.49,229.34 447.97,228.58 448.46,228.32 448.97,228.56 449.49,229.30"/>
    </edge>
    <edge id=":6719078984_3" function="internal">
        <lane id=":6719078984_3_0" index="0" allow="pedestrian bicycle" speed="4.84" length="4.53" width="2.00" shape="451.91,226.14 450.83,226.36 450.06,226.96 449.61,227.94 449.49,229.30"/>
    </edge>
    <edge id=":6719078984_4" function="internal">
        <lane id=":6719078984_4_0" index="0" allow="pedestrian bicycle" speed="5.56" length="8.74" width="2.00" shape="451.91,226.14 449.94,225.79 448.50,224.65 447.59,222.71 447.22,219.98"/>
    </edge>
    <edge id=":6719078984_5" function="internal">
        <lane id=":6719078984_5_0" index="0" allow="pedestrian delivery bicycle" speed="3.65" length="4.67" shape="451.91,226.14 450.70,225.37 450.28,224.58 450.66,223.77 451.84,222.94"/>
    </edge>
    <edge id=":6719078984_6" function="internal">
        <lane id=":6719078984_6_0" index="0" allow="pedestrian bicycle" speed="4.69" length="4.54" width="2.00" shape="449.22,219.91 449.42,221.26 449.93,222.21 450.73,222.77 451.84,222.94"/>
    </edge>
    <edge id=":6719078984_7" function="internal">
        <lane id=":6719078984_7_0" index="0" allow="pedestrian bicycle" speed="5.56" length="9.39" width="2.00" shape="449.22,219.91 449.49,229.30"/>
    </edge>
    <edge id=":6719078984_8" function="internal">
        <lane id=":6719078984_8_0" index="0" allow="pedestrian bicycle" speed="2.89" length="2.92" width="2.00" shape="449.22,219.91 448.74,220.68 448.25,220.95 447.74,220.71 447.22,219.98"/>
    </edge>
    <edge id=":6719106985_0" function="internal">
        <lane id=":6719106985_0_0" index="0" allow="pedestrian delivery bicycle" speed="3.65" length="4.67" shape="495.85,221.92 497.07,222.69 497.49,223.48 497.11,224.29 495.93,225.12"/>
    </edge>
    <edge id=":7281185783_0" function="internal">
        <lane id=":7281185783_0_0" index="0" allow="pedestrian bicycle" speed="2.89" length="2.92" width="2.00" shape="379.63,215.60 379.90,214.74 380.31,214.36 380.86,214.46 381.55,215.04"/>
    </edge>
    <edge id=":7281207385_0" function="internal">
        <lane id=":7281207385_0_0" index="0" allow="pedestrian bicycle" speed="2.89" length="2.92" width="2.00" shape="388.33,228.18 389.08,228.69 389.33,229.19 389.08,229.69 388.33,230.18"/>
    </edge>
    <edge id=":7281264452_0" function="internal">
        <lane id=":7281264452_0_0" index="0" allow="pedestrian bicycle" speed="5.14" length="4.33" width="2.00" shape="112.22,264.51 111.21,264.76 110.40,265.32 109.80,266.18 109.40,267.36"/>
    </edge>
    <edge id=":7281264452_1" function="internal">
        <lane id=":7281264452_1_0" index="0" allow="pedestrian bicycle" speed="5.56" length="6.72" width="2.00" shape="112.22,264.51 110.24,264.64 108.87,264.61 107.51,264.38 105.58,263.91"/>
    </edge>
    <edge id=":7281264452_2" function="internal">
        <lane id=":7281264452_2_0" index="0" allow="pedestrian bicycle" speed="2.89" length="2.92" width="2.00" shape="112.22,264.51 111.43,264.07 111.14,263.60 111.35,263.08 112.05,262.52"/>
    </edge>
    <edge id=":7281264452_3" function="internal">
        <lane id=":7281264452_3_0" index="0" allow="pedestrian bicycle" speed="5.56" length="6.08" width="2.00" shape="106.05,261.97 107.80,262.39 109.02,262.60 110.26,262.64 112.05,262.52"/>
    </edge>
    <edge id=":7281264452_4" function="internal">
        <lane id=":7281264452_4_0" index="0" allow="pedestrian bicycle" speed="5.56" length="7.21" width="2.00" shape="106.05,261.97 107.88,262.70 109.05,263.84 109.55,265.39 109.40,267.36"/>
    </edge>
    <edge id=":7281264452_5" function="internal">
        <lane id=":7281264452_5_0" index="0" allow="pedestrian bicycle" speed="2.89" length="2.92" width="2.00" shape="106.05,261.97 106.66,262.63 106.78,263.18 106.42,263.61 105.58,263.91"/>
    </edge>
    <edge id=":7281264452_6" function="internal">
        <lane id=":7281264452_6_0" index="0" allow="pedestrian bicycle" speed="4.46" length="4.02" width="2.00" shape="107.44,266.92 107.53,265.82 107.25,264.96 106.60,264.32 105.58,263.91"/>
    </edge>
    <edge id=":7281264452_7" function="internal">
        <lane id=":7281264452_7_0" index="0" allow="pedestrian bicycle" speed="5.56" length="6.88" width="2.00" shape="107.44,266.92 108.08,265.11 109.06,263.77 110.38,262.91 112.05,262.52"/>
    </edge>
    <edge id=":7281264452_8" function="internal">
        <lane id=":7281264452_8_0" index="0" allow="pedestrian bicycle" speed="2.89" length="2.92" width="2.00" shape="107.44,266.92 108.10,266.30 108.64,266.17 109.07,266.52 109.40,267.36"/>
    </edge>
    <edge id=":7281264453_0" function="internal">
        <lane id=":7281264453_0_0" index="0" allow="pedestrian bicycle" speed="5.56" length="5.65" width="2.00" shape="123.66,263.11 122.03,263.51 120.91,263.74 119.77,263.88 118.10,264.02"/>
    </edge>
    <edge id=":7281264453_1" function="internal">
        <lane id=":7281264453_1_0" index="0" allow="pedestrian bicycle" speed="2.89" length="2.43" width="2.00" shape="123.66,263.11 122.81,262.81 122.44,262.39 122.56,261.84 122.83,261.54"/>
    </edge>
    <edge id=":7281264453_4" function="internal">
        <lane id=":7281264453_4_0" index="0" allow="pedestrian bicycle" speed="2.89" length="0.49" width="2.00" shape="122.83,261.54 123.16,261.17"/>
    </edge>
    <edge id=":7281264453_2" function="internal">
        <lane id=":7281264453_2_0" index="0" allow="pedestrian bicycle" speed="5.56" length="5.31" width="2.00" shape="117.93,262.03 119.50,261.89 120.57,261.76 121.63,261.55 123.16,261.17"/>
    </edge>
    <edge id=":7281264453_3" function="internal">
        <lane id=":7281264453_3_0" index="0" allow="pedestrian bicycle" speed="2.89" length="2.37" width="2.00" shape="117.93,262.03 118.72,262.46 119.01,262.94 118.80,263.46 118.53,263.68"/>
    </edge>
    <edge id=":7281264453_5" function="internal">
        <lane id=":7281264453_5_0" index="0" allow="pedestrian bicycle" speed="2.89" length="0.55" width="2.00" shape="118.53,263.68 118.10,264.02"/>
    </edge>
    <edge id=":7281264455_0" function="internal">
        <lane id=":7281264455_0_0" index="0" allow="pedestrian bicycle" speed="2.89" length="2.92" width="2.00" shape="139.92,252.78 140.82,252.74 141.32,252.99 141.41,253.54 141.11,254.39"/>
    </edge>
    <edge id=":7281264457_0" function="internal">
        <lane id=":7281264457_0_0" index="0" allow="pedestrian bicycle" speed="2.89" length="2.92" width="2.00" shape="109.14,268.51 108.48,269.13 107.94,269.27 107.51,268.91 107.19,268.07"/>
    </edge>
    <edge id=":7281264458_0" function="internal">
        <lane id=":7281264458_0_0" index="0" allow="pedestrian bicycle" speed="2.90" length="2.98" width="2.00" shape="70.40,211.25 69.94,210.45 69.93,209.88 70.39,209.54 71.30,209.42"/>
    </edge>
    <edge id=":7281264465_0" function="internal">
        <lane id=":7281264465_0_0" index="0" allow="pedestrian bicycle" speed="2.89" length="2.92" width="2.00" shape="145.99,227.89 146.88,228.03 147.32,228.38 147.30,228.93 146.83,229.70"/>
    </edge>
    <edge id=":7281264472_0" function="internal">
        <lane id=":7281264472_0_0" index="0" allow="pedestrian bicycle" speed="5.56" length="4.91" width="2.00" shape="122.15,257.94 120.74,258.31 119.77,258.55 118.79,258.74 117.36,258.98"/>
    </edge>
    <edge id=":7281264472_1" function="internal">
        <lane id=":7281264472_1_0" index="0" allow="pedestrian bicycle" speed="2.89" length="2.40" width="2.00" shape="122.15,257.94 121.29,257.65 120.92,257.23 121.04,256.68 121.29,256.39"/>
    </edge>
    <edge id=":7281264472_4" function="internal">
        <lane id=":7281264472_4_0" index="0" allow="pedestrian bicycle" speed="2.89" length="0.52" width="2.00" shape="121.29,256.39 121.63,256.01"/>
    </edge>
    <edge id=":7281264472_2" function="internal">
        <lane id=":7281264472_2_0" index="0" allow="pedestrian bicycle" speed="5.56" length="4.71" width="2.00" shape="117.03,257.01 118.41,256.78 119.35,256.59 120.28,256.37 121.63,256.01"/>
    </edge>
    <edge id=":7281264472_3" function="internal">
        <lane id=":7281264472_3_0" index="0" allow="pedestrian bicycle" speed="2.89" length="2.36" width="2.00" shape="117.03,257.01 117.86,257.38 118.18,257.83 118.02,258.37 117.77,258.60"/>
    </edge>
    <edge id=":7281264472_5" function="internal">
        <lane id=":7281264472_5_0" index="0" allow="pedestrian bicycle" speed="2.89" length="0.56" width="2.00" shape="117.77,258.60 117.36,258.98"/>
    </edge>
    <edge id=":7281264474_0" function="internal">
        <lane id=":7281264474_0_0" index="0" allow="pedestrian bicycle" speed="4.02" length="4.37" width="2.00" shape="199.45,252.73 199.01,251.51 198.36,250.92 197.47,250.97 196.37,251.65"/>
    </edge>
    <edge id=":7281264474_1" function="internal">
        <lane id=":7281264474_1_0" index="0" allow="pedestrian bicycle" speed="5.56" length="7.52" width="2.00" shape="199.45,252.73 197.91,245.37"/>
    </edge>
    <edge id=":7281264474_2" function="internal">
        <lane id=":7281264474_2_0" index="0" allow="pedestrian bicycle" speed="2.89" length="2.92" width="2.00" shape="199.45,252.73 199.78,251.89 200.22,251.55 200.76,251.69 201.41,252.32"/>
    </edge>
    <edge id=":7281264474_3" function="internal">
        <lane id=":7281264474_3_0" index="0" allow="pedestrian bicycle" speed="5.56" length="7.51" width="2.00" shape="199.87,244.97 201.41,252.32"/>
    </edge>
    <edge id=":7281264474_4" function="internal">
        <lane id=":7281264474_4_0" index="0" allow="pedestrian bicycle" speed="5.56" length="7.91" width="2.00" shape="199.87,244.97 199.90,246.60 199.33,248.26 198.15,249.94 196.37,251.65"/>
    </edge>
    <edge id=":7281264474_5" function="internal">
        <lane id=":7281264474_5_0" index="0" allow="pedestrian bicycle" speed="2.89" length="2.92" width="2.00" shape="199.87,244.97 199.53,245.80 199.09,246.15 198.55,246.01 197.91,245.37"/>
    </edge>
    <edge id=":7281264474_6" function="internal">
        <lane id=":7281264474_6_0" index="0" allow="pedestrian bicycle" speed="5.56" length="5.75" width="2.00" shape="195.10,250.11 196.49,248.81 197.42,247.59 197.89,246.44 197.91,245.37"/>
    </edge>
    <edge id=":7281264474_7" function="internal">
        <lane id=":7281264474_7_0" index="0" allow="pedestrian bicycle" speed="5.50" length="8.95" width="2.00" shape="195.10,250.11 197.36,248.71 199.16,248.61 200.51,249.81 201.41,252.32"/>
    </edge>
    <edge id=":7281264474_8" function="internal">
        <lane id=":7281264474_8_0" index="0" allow="pedestrian bicycle" speed="2.89" length="2.92" width="2.00" shape="195.10,250.11 195.99,250.02 196.50,250.24 196.63,250.79 196.37,251.65"/>
    </edge>
    <edge id=":7281264475_0" function="internal">
        <lane id=":7281264475_0_0" index="0" allow="pedestrian bicycle" speed="2.89" length="2.92" width="2.00" shape="204.44,292.99 203.79,293.61 203.24,293.74 202.81,293.39 202.49,292.55"/>
    </edge>
    <edge id=":7281264480_0" function="internal">
        <lane id=":7281264480_0_0" index="0" allow="pedestrian bicycle" speed="2.89" length="2.92" width="2.00" shape="238.93,219.98 239.41,219.21 239.90,218.95 240.41,219.19 240.93,219.92"/>
    </edge>
    <edge id=":7281308494_0" function="internal">
        <lane id=":7281308494_0_0" index="0" allow="pedestrian bicycle" speed="2.89" length="2.92" width="2.00" shape="263.37,222.62 263.84,221.85 264.33,221.58 264.84,221.81 265.37,222.54"/>
    </edge>
    <edge id=":7281308500_0" function="internal">
        <lane id=":7281308500_0_0" index="0" allow="pedestrian bicycle" speed="4.48" length="4.01" width="2.00" shape="267.92,266.86 266.95,266.35 266.05,266.27 265.20,266.61 264.41,267.38"/>
    </edge>
    <edge id=":7281308500_1" function="internal">
        <lane id=":7281308500_1_0" index="0" allow="pedestrian bicycle" speed="5.56" length="6.42" width="2.00" shape="267.92,266.86 266.52,265.68 265.51,264.40 264.88,263.05 264.63,261.60"/>
    </edge>
    <edge id=":7281308500_2" function="internal">
        <lane id=":7281308500_2_0" index="0" allow="pedestrian bicycle" speed="2.89" length="2.92" width="2.00" shape="267.92,266.86 267.61,266.02 267.69,265.47 268.19,265.21 269.09,265.24"/>
    </edge>
    <edge id=":7281308500_3" function="internal">
        <lane id=":7281308500_3_0" index="0" allow="pedestrian bicycle" speed="5.56" length="4.60" width="2.00" shape="266.63,261.53 266.81,262.51 267.28,263.45 268.04,264.36 269.09,265.24"/>
    </edge>
    <edge id=":7281308500_4" function="internal">
        <lane id=":7281308500_4_0" index="0" allow="pedestrian bicycle" speed="5.56" length="6.47" width="2.00" shape="266.63,261.53 266.60,263.42 266.28,264.70 265.58,265.86 264.41,267.38"/>
    </edge>
    <edge id=":7281308500_5" function="internal">
        <lane id=":7281308500_5_0" index="0" allow="pedestrian bicycle" speed="2.89" length="2.92" width="2.00" shape="266.63,261.53 266.16,262.30 265.67,262.57 265.16,262.33 264.63,261.60"/>
    </edge>
    <edge id=":7281308500_6" function="internal">
        <lane id=":7281308500_6_0" index="0" allow="pedestrian bicycle" speed="5.56" length="5.07" width="2.00" shape="262.83,266.15 263.76,264.97 264.33,264.07 264.60,263.07 264.63,261.60"/>
    </edge>
    <edge id=":7281308500_7" function="internal">
        <lane id=":7281308500_7_0" index="0" allow="pedestrian bicycle" speed="5.56" length="7.16" width="2.00" shape="262.83,266.15 264.23,264.79 265.74,264.18 267.36,264.33 269.09,265.24"/>
    </edge>
    <edge id=":7281308500_8" function="internal">
        <lane id=":7281308500_8_0" index="0" allow="pedestrian bicycle" speed="2.89" length="2.92" width="2.00" shape="262.83,266.15 263.69,265.86 264.23,265.97 264.48,266.48 264.41,267.38"/>
    </edge>
    <edge id=":7281308501_0" function="internal">
        <lane id=":7281308501_0_0" index="0" allow="pedestrian bicycle" speed="4.66" length="4.52" width="2.00" shape="255.72,277.21 255.47,276.20 254.84,275.49 253.81,275.10 252.38,275.01"/>
    </edge>
    <edge id=":7281308501_1" function="internal">
        <lane id=":7281308501_1_0" index="0" allow="pedestrian bicycle" speed="5.56" length="7.41" width="2.00" shape="255.72,277.21 255.57,275.03 255.26,273.56 254.69,272.15 253.73,270.18"/>
    </edge>
    <edge id=":7281308501_2" function="internal">
        <lane id=":7281308501_2_0" index="0" allow="pedestrian bicycle" speed="5.56" length="7.46" width="2.00" shape="255.72,277.21 255.89,275.12 256.56,273.78 257.67,272.59 259.15,270.92"/>
    </edge>
    <edge id=":7281308501_3" function="internal">
        <lane id=":7281308501_3_0" index="0" allow="pedestrian bicycle" speed="2.89" length="2.92" width="2.00" shape="255.72,277.21 256.19,276.44 256.68,276.17 257.19,276.41 257.71,277.14"/>
    </edge>
    <edge id=":7281308501_4" function="internal">
        <lane id=":7281308501_4_0" index="0" allow="pedestrian bicycle" speed="5.56" length="4.13" width="2.00" shape="259.58,273.63 258.76,274.56 258.16,275.23 257.80,275.97 257.71,277.14"/>
    </edge>
    <edge id=":7281308501_5" function="internal">
        <lane id=":7281308501_5_0" index="0" allow="pedestrian bicycle" speed="5.56" length="7.42" width="2.00" shape="259.58,273.63 258.81,274.13 257.35,274.53 255.21,274.82 252.38,275.01"/>
    </edge>
    <edge id=":7281308501_6" function="internal">
        <lane id=":7281308501_6_0" index="0" allow="pedestrian bicycle" speed="5.38" length="8.45" width="2.00" shape="259.58,273.63 258.24,274.67 256.82,274.44 255.32,272.94 253.73,270.18"/>
    </edge>
    <edge id=":7281308501_7" function="internal">
        <lane id=":7281308501_7_0" index="0" allow="pedestrian bicycle" speed="3.23" length="4.02" width="2.00" shape="259.58,273.63 258.45,273.12 258.00,272.49 258.24,271.76 259.15,270.92"/>
    </edge>
    <edge id=":7281308501_8" function="internal">
        <lane id=":7281308501_8_0" index="0" allow="pedestrian bicycle" speed="4.30" length="5.07" width="2.00" shape="255.53,269.31 256.46,270.87 257.37,271.65 258.26,271.67 259.15,270.92"/>
    </edge>
    <edge id=":7281308501_9" function="internal">
        <lane id=":7281308501_9_0" index="0" allow="pedestrian bicycle" speed="5.56" length="8.23" width="2.00" shape="255.53,269.31 256.59,271.51 257.22,273.07 257.56,274.72 257.71,277.14"/>
    </edge>
    <edge id=":7281308501_10" function="internal">
        <lane id=":7281308501_10_0" index="0" allow="pedestrian bicycle" speed="5.45" length="8.41" width="2.00" shape="255.53,269.31 256.32,271.71 256.05,273.46 254.74,274.56 252.38,275.01"/>