<?xml version="1.0" encoding="UTF-8"?>

<!-- generated on 2025-01-16 11:34:22 by Eclipse SUMO netedit Version 1.19.0
<configuration xmlns:xsi="http://www.w3.org/2001/XMLSchema-instance" xsi:noNamespaceSchemaLocation="http://sumo.dlr.de/xsd/neteditConfiguration.xsd">

    <input>
        <sumocfg-file value="c:\Users\li3018\TrafficLightRL\2025-01-16-11-30-47\osm.sumocfg"/>
        <additional-files value="c:\Users\li3018\TrafficLightRL\2025-01-16-11-30-47\osm.poly.xml.gz"/>
        <route-files value="c:\Users\li3018\TrafficLightRL\2025-01-16-11-30-47\osm.passenger.trips.xml"/>
        <sumo-net-file value="C:\Users\li3018\TrafficLightRL\Queens\network\queens.net.xml"/>
    </input>

    <output>
        <output-file value="C:\Users\li3018\TrafficLightRL\Queens\network\queens.net.xml"/>
        <output.street-names value="true"/>
    </output>

    <processing>
        <geometry.min-radius.fix.railways value="false"/>
        <geometry.max-grade.fix value="false"/>
        <offset.disable-normalization value="true"/>
        <lefthand value="0"/>
    </processing>

    <junctions>
        <no-turnarounds value="true"/>
        <junctions.corner-detail value="5"/>
        <junctions.limit-turn-speed value="5.50"/>
        <rectangular-lane-cut value="0"/>
    </junctions>

    <pedestrian>
        <walkingareas value="0"/>
    </pedestrian>

    <netedit>
        <ignore.routeelements value="false"/>
    </netedit>

</configuration>
-->

<net version="1.16" junctionCornerDetail="5" limitTurnSpeed="5.50" xmlns:xsi="http://www.w3.org/2001/XMLSchema-instance" xsi:noNamespaceSchemaLocation="http://sumo.dlr.de/xsd/net_file.xsd">

    <location netOffset="-380229.09,-4897875.83" convBoundary="0.00,0.00,914.55,1183.56" origBoundary="-76.499616,44.224324,-76.488362,44.235072" projParameter="+proj=utm +zone=18 +ellps=WGS84 +datum=WGS84 +units=m +no_defs"/>

    <type id="highway.footway" priority="1" numLanes="1" speed="2.78" allow="pedestrian" oneway="1" width="2.00"/>
    <type id="highway.path" priority="1" numLanes="1" speed="5.56" allow="pedestrian bicycle" oneway="0" width="2.00"/>
    <type id="highway.pedestrian" priority="1" numLanes="1" speed="2.78" allow="pedestrian" oneway="1" width="2.00"/>
    <type id="highway.residential" priority="3" numLanes="1" speed="13.89" disallow="tram rail_urban rail rail_electric rail_fast ship" oneway="0"/>
    <type id="highway.service" priority="1" numLanes="1" speed="5.56" allow="pedestrian delivery bicycle" oneway="0"/>
    <type id="highway.steps" priority="1" numLanes="1" speed="1.39" allow="pedestrian" oneway="1" width="2.00"/>
    <type id="highway.tertiary" priority="10" numLanes="1" speed="22.22" disallow="tram rail_urban rail rail_electric rail_fast ship" oneway="0"/>
    <type id="highway.unclassified" priority="4" numLanes="1" speed="13.89" disallow="tram rail_urban rail rail_electric rail_fast ship" oneway="0"/>

    <edge id=":10869486040_0" function="internal">
        <lane id=":10869486040_0_0" index="0" allow="pedestrian delivery bicycle" speed="3.65" length="4.67" shape="653.76,297.41 654.93,298.27 655.29,299.08 654.85,299.87 653.62,300.61"/>
    </edge>
    <edge id=":108807643_0" function="internal">
        <lane id=":108807643_0_0" index="0" disallow="tram rail_urban rail rail_electric rail_fast ship" speed="11.11" length="5.55" shape="389.29,392.77 387.74,393.42 386.97,394.57 386.20,395.72 384.66,396.37"/>
        <lane id=":108807643_0_1" index="1" disallow="tram rail_urban rail rail_electric rail_fast ship" speed="11.11" length="5.55" shape="389.29,392.77 384.33,393.19"/>
    </edge>
    <edge id=":108807643_2" function="internal">
        <lane id=":108807643_2_0" index="0" disallow="tram rail_urban rail rail_electric rail_fast ship" speed="11.11" length="5.01" shape="383.96,389.62 385.44,389.76 386.45,389.80 387.47,389.74 388.95,389.59"/>
    </edge>
    <edge id=":108807839_0" function="internal">
        <lane id=":108807839_0_0" index="0" disallow="tram rail_urban rail rail_electric rail_fast ship" speed="11.11" length="5.03" shape="320.00,284.37 319.88,279.35"/>
    </edge>
    <edge id=":108807839_1" function="internal">
        <lane id=":108807839_1_0" index="0" disallow="tram rail_urban rail rail_electric rail_fast ship" speed="11.11" length="5.03" shape="323.08,279.27 323.20,284.30"/>
    </edge>
    <edge id=":108808195_0" function="internal">
        <lane id=":108808195_0_0" index="0" allow="pedestrian bicycle" speed="5.56" length="5.40" width="2.00" shape="393.17,296.79 391.57,296.88 390.49,297.03 389.42,297.31 387.89,297.78"/>
    </edge>
    <edge id=":108808195_1" function="internal">
        <lane id=":108808195_1_0" index="0" allow="pedestrian bicycle" speed="2.89" length="0.79" width="2.00" shape="393.17,296.79 392.49,296.38"/>
    </edge>
    <edge id=":108808195_4" function="internal">
        <lane id=":108808195_4_0" index="0" allow="pedestrian bicycle" speed="2.89" length="2.13" width="2.00" shape="392.49,296.38 392.40,296.32 392.13,295.84 392.36,295.33 393.08,294.79"/>
    </edge>
    <edge id=":108808195_2" function="internal">
        <lane id=":108808195_2_0" index="0" allow="pedestrian bicycle" speed="5.56" length="5.91" width="2.00" shape="387.30,295.87 388.98,295.35 390.14,295.05 391.34,294.89 393.08,294.79"/>
    </edge>
    <edge id=":108808195_3" function="internal">
        <lane id=":108808195_3_0" index="0" allow="pedestrian bicycle" speed="2.89" length="2.41" width="2.00" shape="387.30,295.87 388.17,296.12 388.55,296.53 388.46,297.08 388.22,297.38"/>
    </edge>
    <edge id=":108808195_5" function="internal">
        <lane id=":108808195_5_0" index="0" allow="pedestrian bicycle" speed="2.89" length="0.51" width="2.00" shape="388.22,297.38 387.89,297.78"/>
    </edge>
    <edge id=":108809977_0" function="internal">
        <lane id=":108809977_0_0" index="0" allow="pedestrian bicycle" speed="3.95" length="2.96" width="2.00" shape="446.93,295.88 446.66,295.32 446.02,295.05 445.20,294.96 444.39,294.96"/>
    </edge>
    <edge id=":108809977_1" function="internal">
        <lane id=":108809977_1_0" index="0" allow="pedestrian bicycle" speed="5.56" length="5.43" width="2.00" shape="446.93,295.88 446.92,290.46"/>
    </edge>
    <edge id=":108809977_2" function="internal">
        <lane id=":108809977_2_0" index="0" allow="pedestrian bicycle" speed="5.23" length="6.12" width="2.00" shape="446.93,295.88 447.18,294.60 448.02,293.70 449.46,293.18 451.50,293.04"/>
    </edge>
    <edge id=":108809977_3" function="internal">
        <lane id=":108809977_3_0" index="0" allow="pedestrian bicycle" speed="2.89" length="2.92" width="2.00" shape="446.93,295.88 447.40,295.11 447.89,294.85 448.40,295.08 448.93,295.81"/>
    </edge>
    <edge id=":108809977_4" function="internal">
        <lane id=":108809977_4_0" index="0" allow="pedestrian bicycle" speed="3.81" length="2.92" width="2.00" shape="451.46,295.04 450.64,295.01 449.81,295.04 449.17,295.26 448.93,295.81"/>
    </edge>
    <edge id=":108809977_5" function="internal">
        <lane id=":108809977_5_0" index="0" allow="pedestrian bicycle" speed="5.56" length="7.07" width="2.00" shape="451.46,295.04 444.39,294.96"/>
    </edge>
    <edge id=":108809977_6" function="internal">
        <lane id=":108809977_6_0" index="0" allow="pedestrian bicycle" speed="5.56" length="7.35" width="2.00" shape="451.46,295.04 449.44,294.71 448.02,293.84 447.17,292.42 446.92,290.46"/>
    </edge>
    <edge id=":108809977_7" function="internal">
        <lane id=":108809977_7_0" index="0" allow="pedestrian bicycle" speed="2.89" length="2.92" width="2.00" shape="451.46,295.04 450.72,294.52 450.48,294.02 450.74,293.52 451.50,293.04"/>
    </edge>
    <edge id=":108809977_8" function="internal">
        <lane id=":108809977_8_0" index="0" allow="pedestrian bicycle" speed="4.49" length="4.14" width="2.00" shape="448.92,290.49 449.06,291.58 449.54,292.37 450.36,292.86 451.50,293.04"/>
    </edge>
    <edge id=":108809977_9" function="internal">
        <lane id=":108809977_9_0" index="0" allow="pedestrian bicycle" speed="5.56" length="5.32" width="2.00" shape="448.92,290.49 448.93,295.81"/>
    </edge>
    <edge id=":108809977_10" function="internal">
        <lane id=":108809977_10_0" index="0" allow="pedestrian bicycle" speed="5.56" length="7.23" width="2.00" shape="448.92,290.49 448.61,292.45 447.75,293.85 446.34,294.68 444.39,294.96"/>
    </edge>
    <edge id=":108809977_11" function="internal">
        <lane id=":108809977_11_0" index="0" allow="pedestrian bicycle" speed="2.89" length="2.92" width="2.00" shape="448.92,290.49 448.40,291.23 447.90,291.47 447.40,291.21 446.92,290.46"/>
    </edge>
    <edge id=":108809977_12" function="internal">
        <lane id=":108809977_12_0" index="0" allow="pedestrian bicycle" speed="4.46" length="4.04" width="2.00" shape="444.39,292.96 445.48,292.80 446.26,292.33 446.74,291.55 446.92,290.46"/>
    </edge>
    <edge id=":108809977_13" function="internal">
        <lane id=":108809977_13_0" index="0" allow="pedestrian bicycle" speed="5.56" length="7.11" width="2.00" shape="444.39,292.96 451.50,293.04"/>
    </edge>
    <edge id=":108809977_14" function="internal">
        <lane id=":108809977_14_0" index="0" allow="pedestrian bicycle" speed="5.36" length="5.98" width="2.00" shape="444.39,292.96 446.34,293.14 447.74,293.68 448.61,294.56 448.93,295.81"/>
    </edge>
    <edge id=":108809977_15" function="internal">
        <lane id=":108809977_15_0" index="0" allow="pedestrian bicycle" speed="2.89" length="2.92" width="2.00" shape="444.39,292.96 445.14,293.46 445.39,293.96 445.14,294.46 444.39,294.96"/>
    </edge>
    <edge id=":108810779_0" function="internal">
        <lane id=":108810779_0_0" index="0" allow="pedestrian delivery bicycle" speed="3.65" length="4.67" shape="493.81,232.53 494.60,231.33 495.40,230.92 496.20,231.31 497.01,232.51"/>
    </edge>
    <edge id=":1468838509_0" function="internal">
        <lane id=":1468838509_0_0" index="0" disallow="tram rail_urban rail rail_electric rail_fast ship" speed="11.11" length="8.32" shape="282.00,404.70 279.63,404.04 277.98,403.65 276.31,403.37 273.86,403.05"/>
    </edge>
    <edge id=":1468838509_1" function="internal">
        <lane id=":1468838509_1_0" index="0" disallow="tram rail_urban rail rail_electric rail_fast ship" speed="11.11" length="8.04" shape="274.27,399.87 276.60,399.70 278.11,398.81 279.63,397.81 281.98,397.29"/>
        <lane id=":1468838509_1_1" index="1" disallow="tram rail_urban rail rail_electric rail_fast ship" speed="11.11" length="8.04" shape="274.27,399.87 276.55,400.19 278.12,400.40 279.69,400.50 281.99,400.49"/>
    </edge>
    <edge id=":1553158939_0" function="internal">
        <lane id=":1553158939_0_0" index="0" allow="pedestrian bicycle" speed="2.89" length="2.92" width="2.00" shape="393.09,282.11 392.54,281.39 392.47,280.84 392.87,280.45 393.74,280.22"/>
    </edge>
    <edge id=":2164610677_0" function="internal">
        <lane id=":2164610677_0_0" index="0" allow="pedestrian bicycle" speed="2.89" length="2.92" width="2.00" shape="434.03,512.66 433.62,513.46 433.15,513.76 432.62,513.57 432.05,512.88"/>
    </edge>
    <edge id=":2164610681_0" function="internal">
        <lane id=":2164610681_0_0" index="0" allow="pedestrian bicycle" speed="2.89" length="2.92" width="2.00" shape="431.72,509.78 432.14,508.98 432.61,508.68 433.13,508.88 433.71,509.57"/>
    </edge>
    <edge id=":2418407365_0" function="internal">
        <lane id=":2418407365_0_0" index="0" allow="pedestrian delivery bicycle" speed="3.65" length="4.67" shape="548.43,241.24 549.23,240.04 550.03,239.64 550.83,240.04 551.63,241.24"/>
    </edge>
    <edge id=":2418407367_0" function="internal">
        <lane id=":2418407367_0_0" index="0" allow="pedestrian delivery bicycle" speed="5.07" length="5.03" shape="537.33,273.10 537.11,271.73 536.50,270.76 535.53,270.19 534.17,270.01"/>
    </edge>
    <edge id=":2418407367_1" function="internal">
        <lane id=":2418407367_1_0" index="0" allow="pedestrian delivery bicycle" speed="5.56" length="10.20" shape="537.33,273.10 537.66,270.32 538.81,268.33 540.76,267.11 543.53,266.67"/>
    </edge>
    <edge id=":2418407367_2" function="internal">
        <lane id=":2418407367_2_0" index="0" allow="pedestrian delivery bicycle" speed="3.65" length="4.67" shape="537.33,273.10 538.10,271.89 538.89,271.47 539.70,271.85 540.53,273.03"/>
    </edge>
    <edge id=":2418407367_3" function="internal">
        <lane id=":2418407367_3_0" index="0" allow="pedestrian delivery bicycle" speed="5.03" length="5.01" shape="543.57,269.87 542.21,270.09 541.25,270.68 540.69,271.67 540.53,273.03"/>
    </edge>
    <edge id=":2418407367_4" function="internal">
        <lane id=":2418407367_4_0" index="0" allow="pedestrian delivery bicycle" speed="5.56" length="9.40" shape="543.57,269.87 534.17,270.01"/>
    </edge>
    <edge id=":2418407367_5" function="internal">
        <lane id=":2418407367_5_0" index="0" allow="pedestrian delivery bicycle" speed="3.65" length="4.67" shape="543.57,269.87 542.36,269.09 541.95,268.30 542.34,267.49 543.53,266.67"/>
    </edge>
    <edge id=":2418407367_6" function="internal">
        <lane id=":2418407367_6_0" index="0" allow="pedestrian delivery bicycle" speed="5.56" length="9.40" shape="534.12,266.81 543.53,266.67"/>
    </edge>
    <edge id=":2418407367_7" function="internal">
        <lane id=":2418407367_7_0" index="0" allow="pedestrian delivery bicycle" speed="5.56" length="10.16" shape="534.12,266.81 536.87,267.16 538.85,268.32 540.07,270.27 540.53,273.03"/>
    </edge>
    <edge id=":2418407367_8" function="internal">
        <lane id=":2418407367_8_0" index="0" allow="pedestrian delivery bicycle" speed="3.65" length="4.67" shape="534.12,266.81 535.33,267.59 535.75,268.39 535.36,269.19 534.17,270.01"/>
    </edge>
    <edge id=":2418407370_0" function="internal">
        <lane id=":2418407370_0_0" index="0" allow="pedestrian delivery bicycle" speed="5.56" length="9.40" shape="537.66,287.30 537.44,277.90"/>
    </edge>
    <edge id=":2418407370_1" function="internal">
        <lane id=":2418407370_1_0" index="0" allow="pedestrian delivery bicycle" speed="5.56" length="10.16" shape="537.66,287.30 537.99,284.53 539.12,282.54 541.07,281.31 543.81,280.85"/>
    </edge>
    <edge id=":2418407370_2" function="internal">
        <lane id=":2418407370_2_0" index="0" allow="pedestrian delivery bicycle" speed="3.65" length="4.67" shape="537.66,287.30 538.43,286.08 539.22,285.66 540.03,286.04 540.86,287.22"/>
    </edge>
    <edge id=":2418407370_3" function="internal">
        <lane id=":2418407370_3_0" index="0" allow="pedestrian delivery bicycle" speed="5.04" length="5.00" shape="543.89,284.05 542.54,284.27 541.58,284.88 541.02,285.86 540.86,287.22"/>
    </edge>
    <edge id=":2418407370_4" function="internal">
        <lane id=":2418407370_4_0" index="0" allow="pedestrian delivery bicycle" speed="5.56" length="10.16" shape="543.89,284.05 541.12,283.72 539.13,282.59 537.90,280.64 537.44,277.90"/>
    </edge>
    <edge id=":2418407370_5" function="internal">
        <lane id=":2418407370_5_0" index="0" allow="pedestrian delivery bicycle" speed="3.65" length="4.67" shape="543.89,284.05 542.67,283.28 542.25,282.49 542.63,281.68 543.81,280.85"/>
    </edge>
    <edge id=":2418407370_6" function="internal">
        <lane id=":2418407370_6_0" index="0" allow="pedestrian delivery bicycle" speed="5.04" length="5.00" shape="540.64,277.82 540.87,279.17 541.47,280.13 542.45,280.69 543.81,280.85"/>
    </edge>
    <edge id=":2418407370_7" function="internal">
        <lane id=":2418407370_7_0" index="0" allow="pedestrian delivery bicycle" speed="5.56" length="9.40" shape="540.64,277.82 540.86,287.22"/>
    </edge>
    <edge id=":2418407370_8" function="internal">
        <lane id=":2418407370_8_0" index="0" allow="pedestrian delivery bicycle" speed="3.65" length="4.67" shape="540.64,277.82 539.87,279.04 539.08,279.46 538.27,279.08 537.44,277.90"/>
    </edge>
    <edge id=":2418407371_0" function="internal">
        <lane id=":2418407371_0_0" index="0" allow="pedestrian delivery bicycle" speed="5.03" length="5.01" shape="577.28,306.12 577.06,304.77 576.45,303.81 575.46,303.26 574.10,303.11"/>
    </edge>
    <edge id=":2418407371_1" function="internal">
        <lane id=":2418407371_1_0" index="0" allow="pedestrian delivery bicycle" speed="5.56" length="9.40" shape="577.28,306.12 577.06,296.73"/>
    </edge>
    <edge id=":2418407371_2" function="internal">
        <lane id=":2418407371_2_0" index="0" allow="pedestrian delivery bicycle" speed="3.65" length="4.67" shape="577.28,306.12 578.05,304.90 578.84,304.49 579.65,304.87 580.48,306.05"/>
    </edge>
    <edge id=":2418407371_3" function="internal">
        <lane id=":2418407371_3_0" index="0" allow="pedestrian delivery bicycle" speed="5.56" length="9.40" shape="580.26,296.65 580.48,306.05"/>
    </edge>
    <edge id=":2418407371_4" function="internal">
        <lane id=":2418407371_4_0" index="0" allow="pedestrian delivery bicycle" speed="5.56" length="10.16" shape="580.26,296.65 579.93,299.40 578.79,301.39 576.85,302.63 574.10,303.11"/>
    </edge>
    <edge id=":2418407371_5" function="internal">
        <lane id=":2418407371_5_0" index="0" allow="pedestrian delivery bicycle" speed="3.65" length="4.67" shape="580.26,296.65 579.49,297.87 578.70,298.29 577.89,297.91 577.06,296.73"/>
    </edge>
    <edge id=":2418407371_6" function="internal">
        <lane id=":2418407371_6_0" index="0" allow="pedestrian delivery bicycle" speed="5.07" length="5.03" shape="573.99,299.91 575.36,299.67 576.33,299.06 576.90,298.08 577.06,296.73"/>
    </edge>
    <edge id=":2418407371_7" function="internal">
        <lane id=":2418407371_7_0" index="0" allow="pedestrian delivery bicycle" speed="5.56" length="10.20" shape="573.99,299.91 576.78,300.22 578.78,301.34 580.02,303.29 580.48,306.05"/>
    </edge>
    <edge id=":2418407371_8" function="internal">
        <lane id=":2418407371_8_0" index="0" allow="pedestrian delivery bicycle" speed="3.65" length="4.67" shape="573.99,299.91 575.22,300.67 575.64,301.46 575.27,302.27 574.10,303.11"/>
    </edge>
    <edge id=":2418407372_0" function="internal">
        <lane id=":2418407372_0_0" index="0" allow="pedestrian delivery bicycle" speed="5.56" length="9.40" shape="538.13,307.32 537.91,297.92"/>
    </edge>
    <edge id=":2418407372_1" function="internal">
        <lane id=":2418407372_1_0" index="0" allow="pedestrian delivery bicycle" speed="5.56" length="10.16" shape="538.13,307.32 538.46,304.57 539.60,302.58 541.54,301.34 544.29,300.86"/>
    </edge>
    <edge id=":2418407372_2" function="internal">
        <lane id=":2418407372_2_0" index="0" allow="pedestrian delivery bicycle" speed="3.65" length="4.67" shape="538.13,307.32 538.90,306.10 539.69,305.68 540.50,306.06 541.33,307.24"/>
    </edge>
    <edge id=":2418407372_3" function="internal">
        <lane id=":2418407372_3_0" index="0" allow="pedestrian delivery bicycle" speed="5.07" length="5.03" shape="544.40,304.06 543.03,304.30 542.06,304.90 541.49,305.89 541.33,307.24"/>
    </edge>
    <edge id=":2418407372_4" function="internal">
        <lane id=":2418407372_4_0" index="0" allow="pedestrian delivery bicycle" speed="5.56" length="10.20" shape="544.40,304.06 541.61,303.75 539.61,302.63 538.37,300.68 537.91,297.92"/>
    </edge>
    <edge id=":2418407372_5" function="internal">
        <lane id=":2418407372_5_0" index="0" allow="pedestrian delivery bicycle" speed="3.65" length="4.67" shape="544.40,304.06 543.17,303.30 542.75,302.51 543.12,301.70 544.29,300.86"/>
    </edge>
    <edge id=":2418407372_6" function="internal">
        <lane id=":2418407372_6_0" index="0" allow="pedestrian delivery bicycle" speed="5.03" length="5.01" shape="541.11,297.85 541.34,299.20 541.94,300.16 542.93,300.71 544.29,300.86"/>
    </edge>
    <edge id=":2418407372_7" function="internal">
        <lane id=":2418407372_7_0" index="0" allow="pedestrian delivery bicycle" speed="5.56" length="9.40" shape="541.11,297.85 541.33,307.24"/>
    </edge>
    <edge id=":2418407372_8" function="internal">
        <lane id=":2418407372_8_0" index="0" allow="pedestrian delivery bicycle" speed="3.65" length="4.67" shape="541.11,297.85 540.34,299.06 539.55,299.48 538.74,299.10 537.91,297.92"/>
    </edge>
    <edge id=":2418408381_0" function="internal">
        <lane id=":2418408381_0_0" index="0" allow="pedestrian delivery bicycle" speed="3.65" length="4.67" shape="668.44,427.76 669.67,428.52 670.10,429.30 669.73,430.12 668.56,430.96"/>
    </edge>
    <edge id=":2418408384_0" function="internal">
        <lane id=":2418408384_0_0" index="0" allow="pedestrian delivery bicycle" speed="5.23" length="5.48" shape="644.25,434.03 643.89,432.45 643.19,431.37 642.15,430.78 640.77,430.70"/>
    </edge>
    <edge id=":2418408384_1" function="internal">
        <lane id=":2418408384_1_0" index="0" allow="pedestrian delivery bicycle" speed="5.56" length="11.04" shape="644.25,434.03 644.36,430.93 645.47,428.78 647.57,427.59 650.66,427.34"/>
    </edge>
    <edge id=":2418408384_2" function="internal">
        <lane id=":2418408384_2_0" index="0" allow="pedestrian delivery bicycle" speed="3.65" length="4.67" shape="644.25,434.03 644.92,432.75 645.67,432.27 646.51,432.58 647.43,433.69"/>
    </edge>
    <edge id=":2418408384_3" function="internal">
        <lane id=":2418408384_3_0" index="0" allow="pedestrian delivery bicycle" speed="4.88" length="5.21" shape="650.46,430.53 649.00,430.65 648.01,431.21 647.49,432.23 647.43,433.69"/>
    </edge>
    <edge id=":2418408384_4" function="internal">
        <lane id=":2418408384_4_0" index="0" allow="pedestrian delivery bicycle" speed="5.56" length="9.71" shape="650.46,430.53 647.58,430.35 645.61,430.30 643.64,430.41 640.77,430.70"/>
    </edge>
    <edge id=":2418408384_5" function="internal">
        <lane id=":2418408384_5_0" index="0" allow="pedestrian delivery bicycle" speed="3.65" length="4.67" shape="650.46,430.53 649.31,429.66 648.97,428.83 649.41,428.06 650.66,427.34"/>
    </edge>
    <edge id=":2418408384_6" function="internal">
        <lane id=":2418408384_6_0" index="0" allow="pedestrian delivery bicycle" speed="5.56" length="10.26" shape="640.42,427.52 643.42,427.22 645.54,427.11 647.66,427.16 650.66,427.34"/>
    </edge>
    <edge id=":2418408384_7" function="internal">
        <lane id=":2418408384_7_0" index="0" allow="pedestrian delivery bicycle" speed="5.56" length="10.65" shape="640.42,427.52 643.22,427.65 645.31,428.72 646.72,430.74 647.43,433.69"/>
    </edge>
    <edge id=":2418408384_8" function="internal">
        <lane id=":2418408384_8_0" index="0" allow="pedestrian delivery bicycle" speed="3.65" length="4.67" shape="640.42,427.52 641.70,428.19 642.19,428.94 641.88,429.78 640.77,430.70"/>
    </edge>
    <edge id=":2418408386_0" function="internal">
        <lane id=":2418408386_0_0" index="0" allow="pedestrian bicycle" speed="5.56" length="6.91" width="2.00" shape="624.68,432.47 623.53,432.30 622.26,431.58 620.87,430.29 619.36,428.43"/>
    </edge>
    <edge id=":2418408386_1" function="internal">
        <lane id=":2418408386_1_0" index="0" allow="pedestrian delivery bicycle" speed="3.65" length="1.44" shape="624.68,432.47 623.40,431.80"/>
    </edge>
    <edge id=":2418408386_3" function="internal">
        <lane id=":2418408386_3_0" index="0" allow="pedestrian delivery bicycle" speed="3.65" length="3.23" shape="623.40,431.80 622.91,431.05 623.22,430.21 624.33,429.29"/>
    </edge>
    <edge id=":2418408386_2" function="internal">
        <lane id=":2418408386_2_0" index="0" allow="pedestrian bicycle" speed="5.56" length="4.11" width="2.00" shape="620.97,427.25 621.79,428.21 622.63,428.87 623.47,429.23 624.33,429.29"/>
    </edge>
    <edge id=":2418408388_0" function="internal">
        <lane id=":2418408388_0_0" index="0" allow="pedestrian delivery bicycle" speed="5.05" length="5.02" shape="646.05,450.91 645.71,449.58 645.03,448.67 644.00,448.19 642.63,448.14"/>
    </edge>
    <edge id=":2418408388_1" function="internal">
        <lane id=":2418408388_1_0" index="0" allow="pedestrian delivery bicycle" speed="5.56" length="9.41" shape="646.05,450.91 645.05,441.55"/>
    </edge>
    <edge id=":2418408388_2" function="internal">
        <lane id=":2418408388_2_0" index="0" allow="pedestrian delivery bicycle" speed="5.56" length="10.17" shape="646.05,450.91 646.15,448.12 647.12,446.04 648.95,444.66 651.66,443.98"/>
    </edge>
    <edge id=":2418408388_3" function="internal">
        <lane id=":2418408388_3_0" index="0" allow="pedestrian delivery bicycle" speed="3.65" length="4.67" shape="646.05,450.91 646.72,449.63 647.47,449.15 648.31,449.46 649.23,450.57"/>
    </edge>
    <edge id=":2418408388_4" function="internal">
        <lane id=":2418408388_4_0" index="0" allow="pedestrian delivery bicycle" speed="5.04" length="5.00" shape="651.99,447.16 650.66,447.50 649.75,448.18 649.28,449.20 649.23,450.57"/>
    </edge>
    <edge id=":2418408388_5" function="internal">
        <lane id=":2418408388_5_0" index="0" allow="pedestrian delivery bicycle" speed="5.56" length="9.41" shape="651.99,447.16 642.63,448.14"/>
    </edge>
    <edge id=":2418408388_6" function="internal">
        <lane id=":2418408388_6_0" index="0" allow="pedestrian delivery bicycle" speed="5.56" length="10.17" shape="651.99,447.16 649.20,447.06 647.12,446.09 645.73,444.25 645.05,441.55"/>
    </edge>
    <edge id=":2418408388_7" function="internal">
        <lane id=":2418408388_7_0" index="0" allow="pedestrian delivery bicycle" speed="3.65" length="4.67" shape="651.99,447.16 650.71,446.49 650.23,445.74 650.54,444.90 651.66,443.98"/>
    </edge>
    <edge id=":2418408388_8" function="internal">
        <lane id=":2418408388_8_0" index="0" allow="pedestrian delivery bicycle" speed="5.05" length="5.02" shape="648.23,441.21 648.57,442.54 649.25,443.45 650.28,443.93 651.66,443.98"/>
    </edge>
    <edge id=":2418408388_9" function="internal">
        <lane id=":2418408388_9_0" index="0" allow="pedestrian delivery bicycle" speed="5.56" length="9.41" shape="648.23,441.21 649.23,450.57"/>
    </edge>
    <edge id=":2418408388_10" function="internal">
        <lane id=":2418408388_10_0" index="0" allow="pedestrian delivery bicycle" speed="5.56" length="10.17" shape="648.23,441.21 648.13,444.00 647.17,446.08 645.33,447.46 642.63,448.14"/>
    </edge>
    <edge id=":2418408388_11" function="internal">
        <lane id=":2418408388_11_0" index="0" allow="pedestrian delivery bicycle" speed="3.65" length="4.67" shape="648.23,441.21 647.56,442.49 646.81,442.97 645.97,442.66 645.05,441.55"/>
    </edge>
    <edge id=":2418408388_12" function="internal">
        <lane id=":2418408388_12_0" index="0" allow="pedestrian delivery bicycle" speed="5.04" length="5.00" shape="642.29,444.96 643.62,444.62 644.53,443.95 645.00,442.92 645.05,441.55"/>
    </edge>
    <edge id=":2418408388_13" function="internal">
        <lane id=":2418408388_13_0" index="0" allow="pedestrian delivery bicycle" speed="5.56" length="9.41" shape="642.29,444.96 651.66,443.98"/>
    </edge>
    <edge id=":2418408388_14" function="internal">
        <lane id=":2418408388_14_0" index="0" allow="pedestrian delivery bicycle" speed="5.56" length="10.17" shape="642.29,444.96 645.08,445.06 647.16,446.03 648.55,447.87 649.23,450.57"/>
    </edge>
    <edge id=":2418408388_15" function="internal">
        <lane id=":2418408388_15_0" index="0" allow="pedestrian delivery bicycle" speed="3.65" length="4.67" shape="642.29,444.96 643.57,445.63 644.05,446.38 643.74,447.22 642.63,448.14"/>
    </edge>
    <edge id=":2418408392_0" function="internal">
        <lane id=":2418408392_0_0" index="0" allow="pedestrian delivery bicycle" speed="3.65" length="4.67" shape="598.80,455.28 599.61,454.09 600.41,453.69 601.21,454.09 602.00,455.30"/>
    </edge>
    <edge id=":2418408396_0" function="internal">
        <lane id=":2418408396_0_0" index="0" allow="pedestrian delivery bicycle" speed="3.65" length="4.67" shape="666.30,461.02 667.57,461.70 668.04,462.46 667.72,463.29 666.60,464.20"/>
    </edge>
    <edge id=":2418408398_0" function="internal">
        <lane id=":2418408398_0_0" index="0" allow="pedestrian delivery bicycle" speed="5.05" length="5.03" shape="647.99,469.17 647.65,467.83 646.97,466.92 645.95,466.44 644.58,466.39"/>
    </edge>
    <edge id=":2418408398_1" function="internal">
        <lane id=":2418408398_1_0" index="0" allow="pedestrian delivery bicycle" speed="5.56" length="9.43" shape="647.99,469.17 646.99,459.80"/>
    </edge>
    <edge id=":2418408398_2" function="internal">
        <lane id=":2418408398_2_0" index="0" allow="pedestrian delivery bicycle" speed="5.56" length="10.21" shape="647.99,469.17 648.09,466.38 649.07,464.29 650.91,462.91 653.63,462.25"/>
    </edge>
    <edge id=":2418408398_3" function="internal">
        <lane id=":2418408398_3_0" index="0" allow="pedestrian delivery bicycle" speed="3.65" length="4.67" shape="647.99,469.17 648.66,467.90 649.41,467.41 650.25,467.73 651.17,468.83"/>
    </edge>
    <edge id=":2418408398_4" function="internal">
        <lane id=":2418408398_4_0" index="0" allow="pedestrian delivery bicycle" speed="5.03" length="5.01" shape="653.94,465.43 652.61,465.76 651.70,466.44 651.22,467.46 651.17,468.83"/>
    </edge>
    <edge id=":2418408398_5" function="internal">
        <lane id=":2418408398_5_0" index="0" allow="pedestrian delivery bicycle" speed="5.56" length="9.42" shape="653.94,465.43 644.58,466.39"/>
    </edge>
    <edge id=":2418408398_6" function="internal">
        <lane id=":2418408398_6_0" index="0" allow="pedestrian delivery bicycle" speed="5.56" length="10.19" shape="653.94,465.43 651.15,465.31 649.06,464.33 647.68,462.49 646.99,459.80"/>
    </edge>
    <edge id=":2418408398_7" function="internal">