<?xml version="1.0" encoding="UTF-8"?>

<!-- generated on 2025-01-07 19:39:50 by Eclipse SUMO netedit Version 1.19.0
<configuration xmlns:xsi="http://www.w3.org/2001/XMLSchema-instance" xsi:noNamespaceSchemaLocation="http://sumo.dlr.de/xsd/neteditConfiguration.xsd">

    <input>
        <sumocfg-file value="C:\Users\li3018\Sumo\2025-01-06-19-11-21\osm.sumocfg"/>
        <additional-files value="C:\Users\li3018\Sumo\2025-01-06-19-11-21\osm.poly.xml.gz"/>
        <route-files value="C:\Users\li3018\Sumo\2025-01-06-19-11-21\osm.passenger.trips.xml"/>
        <sumo-net-file value="C:\Users\li3018\TrafficLightRL\Queens\network\queens.net.xml"/>
    </input>

    <output>
        <output-file value="C:\Users\li3018\TrafficLightRL\Queens\network\queens.net.xml"/>
        <output.street-names value="true"/>
    </output>

    <processing>
        <geometry.min-radius.fix.railways value="false"/>
        <geometry.max-grade.fix value="false"/>
        <offset.disable-normalization value="true"/>
        <lefthand value="0"/>
    </processing>

    <junctions>
        <no-turnarounds value="true"/>
        <junctions.corner-detail value="5"/>
        <junctions.limit-turn-speed value="5.50"/>
        <rectangular-lane-cut value="0"/>
    </junctions>

    <pedestrian>
        <walkingareas value="0"/>
    </pedestrian>

    <netedit>
        <ignore.routeelements value="false"/>
    </netedit>

</configuration>
-->

<net version="1.16" junctionCornerDetail="5" limitTurnSpeed="5.50" xmlns:xsi="http://www.w3.org/2001/XMLSchema-instance" xsi:noNamespaceSchemaLocation="http://sumo.dlr.de/xsd/net_file.xsd">

    <location netOffset="-379237.50,-4897645.53" convBoundary="0.00,0.00,1713.36,1041.32" origBoundary="-76.511944,44.222163,-76.490520,44.231564" projParameter="+proj=utm +zone=18 +ellps=WGS84 +datum=WGS84 +units=m +no_defs"/>

    <type id="highway.footway" priority="1" numLanes="1" speed="2.78" allow="pedestrian" oneway="1" width="2.00"/>
    <type id="highway.path" priority="1" numLanes="1" speed="5.56" allow="pedestrian bicycle" oneway="0" width="2.00"/>
    <type id="highway.pedestrian" priority="1" numLanes="1" speed="2.78" allow="pedestrian" oneway="1" width="2.00"/>
    <type id="highway.residential" priority="3" numLanes="1" speed="13.89" disallow="tram rail_urban rail rail_electric rail_fast ship" oneway="0"/>
    <type id="highway.service" priority="1" numLanes="1" speed="5.56" allow="pedestrian delivery bicycle" oneway="0"/>
    <type id="highway.steps" priority="1" numLanes="1" speed="1.39" allow="pedestrian" oneway="1" width="2.00"/>
    <type id="highway.tertiary" priority="10" numLanes="1" speed="22.22" disallow="tram rail_urban rail rail_electric rail_fast ship" oneway="0"/>
    <type id="highway.unclassified" priority="4" numLanes="1" speed="13.89" disallow="tram rail_urban rail rail_electric rail_fast ship" oneway="0"/>

    <edge id=":10561611737_0" function="internal">
        <lane id=":10561611737_0_0" index="0" allow="pedestrian bicycle" speed="2.89" length="2.92" width="2.00" shape="1348.22,245.22 1348.52,244.37 1348.94,244.00 1349.49,244.12 1350.16,244.72"/>
    </edge>
    <edge id=":10728059757_0" function="internal">
        <lane id=":10728059757_0_0" index="0" allow="pedestrian delivery bicycle" speed="3.65" length="4.67" shape="921.67,422.87 922.75,423.83 923.04,424.68 922.53,425.42 921.23,426.05"/>
    </edge>
    <edge id=":10728059758_0" function="internal">
        <lane id=":10728059758_0_0" index="0" allow="pedestrian delivery bicycle" speed="3.65" length="4.67" shape="901.65,374.62 902.50,373.46 903.32,373.09 904.10,373.53 904.85,374.76"/>
    </edge>
    <edge id=":10872391123_0" function="internal">
        <lane id=":10872391123_0_0" index="0" allow="pedestrian bicycle" speed="2.89" length="2.92" width="2.00" shape="1339.16,241.30 1339.87,241.86 1340.09,242.38 1339.80,242.86 1339.01,243.30"/>
    </edge>
    <edge id=":108805209_0" function="internal">
        <lane id=":108805209_0_0" index="0" allow="pedestrian bicycle" speed="5.56" length="6.70" width="2.00" shape="1231.55,323.36 1230.38,324.94 1229.77,326.17 1229.53,327.54 1229.49,329.51"/>
    </edge>
    <edge id=":108805209_1" function="internal">
        <lane id=":108805209_1_0" index="0" allow="pedestrian bicycle" speed="5.56" length="8.59" width="2.00" shape="1231.55,323.36 1229.65,325.32 1227.81,326.36 1226.00,326.49 1224.24,325.69"/>
    </edge>
    <edge id=":108805209_2" function="internal">
        <lane id=":108805209_2_0" index="0" allow="pedestrian bicycle" speed="2.89" length="2.92" width="2.00" shape="1231.55,323.36 1230.69,323.64 1230.14,323.52 1229.90,323.02 1229.98,322.12"/>
    </edge>
    <edge id=":108805209_3" function="internal">
        <lane id=":108805209_3_0" index="0" allow="pedestrian bicycle" speed="4.89" length="4.49" width="2.00" shape="1226.11,323.09 1227.09,323.57 1228.06,323.56 1229.02,323.08 1229.98,322.12"/>
    </edge>
    <edge id=":108805209_4" function="internal">
        <lane id=":108805209_4_0" index="0" allow="pedestrian delivery bicycle" speed="5.56" length="7.54" shape="1226.11,323.09 1227.59,324.41 1228.65,325.92 1229.28,327.62 1229.49,329.51"/>
    </edge>
    <edge id=":108805209_5" function="internal">
        <lane id=":108805209_5_0" index="0" allow="pedestrian delivery bicycle" speed="3.65" length="4.67" shape="1226.11,323.09 1226.61,324.45 1226.47,325.33 1225.68,325.74 1224.24,325.69"/>
    </edge>
    <edge id=":108805209_6" function="internal">
        <lane id=":108805209_6_0" index="0" allow="pedestrian delivery bicycle" speed="5.56" length="4.50" shape="1226.29,329.50 1226.17,328.39 1225.78,327.39 1225.14,326.49 1224.24,325.69"/>
    </edge>
    <edge id=":108805209_7" function="internal">
        <lane id=":108805209_7_0" index="0" allow="pedestrian bicycle" speed="5.56" length="8.54" width="2.00" shape="1226.29,329.50 1226.51,327.06 1227.18,325.48 1228.32,324.06 1229.98,322.12"/>
    </edge>
    <edge id=":108805209_8" function="internal">
        <lane id=":108805209_8_0" index="0" allow="pedestrian delivery bicycle" speed="3.65" length="4.67" shape="1226.29,329.50 1227.09,328.30 1227.90,327.90 1228.69,328.31 1229.49,329.51"/>
    </edge>
    <edge id=":108805414_0" function="internal">
        <lane id=":108805414_0_0" index="0" allow="pedestrian bicycle" speed="5.56" length="9.40" width="2.00" shape="1182.20,359.97 1179.80,358.92 1177.89,359.06 1175.85,359.50 1173.07,359.37"/>
    </edge>
    <edge id=":108805414_1" function="internal">
        <lane id=":108805414_1_0" index="0" allow="pedestrian bicycle" speed="5.56" length="10.19" width="2.00" shape="1182.20,359.97 1179.68,358.33 1177.87,357.29 1176.00,356.33 1173.34,354.94"/>
    </edge>
    <edge id=":108805414_2" function="internal">
        <lane id=":108805414_2_0" index="0" allow="pedestrian bicycle" speed="5.56" length="8.87" width="2.00" shape="1182.20,359.97 1180.27,358.34 1179.41,356.79 1179.01,354.91 1178.52,352.30"/>
    </edge>
    <edge id=":108805414_3" function="internal">
        <lane id=":108805414_3_0" index="0" allow="pedestrian bicycle" speed="2.89" length="2.92" width="2.00" shape="1182.20,359.97 1181.86,359.13 1181.93,358.58 1182.42,358.30 1183.32,358.31"/>
    </edge>
    <edge id=":108805414_4" function="internal">
        <lane id=":108805414_4_0" index="0" allow="pedestrian bicycle" speed="5.56" length="7.39" width="2.00" shape="1180.47,351.83 1180.84,354.02 1181.10,355.62 1181.75,356.94 1183.32,358.31"/>
    </edge>
    <edge id=":108805414_5" function="internal">
        <lane id=":108805414_5_0" index="0" allow="pedestrian bicycle" speed="5.56" length="13.85" width="2.00" shape="1180.47,351.83 1180.86,355.89 1179.75,358.50 1177.16,359.66 1173.07,359.37"/>
    </edge>
    <edge id=":108805414_6" function="internal">
        <lane id=":108805414_6_0" index="0" allow="pedestrian bicycle" speed="5.56" length="11.74" width="2.00" shape="1180.47,351.83 1180.73,355.01 1179.63,356.59 1177.17,356.57 1173.34,354.94"/>
    </edge>
    <edge id=":108805414_7" function="internal">
        <lane id=":108805414_7_0" index="0" allow="pedestrian bicycle" speed="2.89" length="2.92" width="2.00" shape="1180.47,351.83 1180.15,352.68 1179.72,353.04 1179.18,352.91 1178.52,352.30"/>
    </edge>
    <edge id=":108805414_8" function="internal">
        <lane id=":108805414_8_0" index="0" allow="pedestrian bicycle" speed="4.40" length="6.16" width="2.00" shape="1174.29,353.18 1176.46,354.16 1177.89,354.33 1178.58,353.71 1178.52,352.30"/>
    </edge>
    <edge id=":108805414_9" function="internal">
        <lane id=":108805414_9_0" index="0" allow="pedestrian bicycle" speed="5.56" length="10.39" width="2.00" shape="1174.29,353.18 1176.97,354.59 1178.90,355.58 1180.78,356.66 1183.32,358.31"/>
    </edge>
    <edge id=":108805414_10" function="internal">
        <lane id=":108805414_10_0" index="0" allow="pedestrian bicycle" speed="4.62" length="8.75" width="2.00" shape="1174.29,353.18 1175.88,354.95 1176.12,357.17 1175.14,358.94 1173.07,359.37"/>
    </edge>
    <edge id=":108805414_11" function="internal">
        <lane id=":108805414_11_0" index="0" allow="pedestrian bicycle" speed="2.89" length="2.92" width="2.00" shape="1174.29,353.18 1174.71,353.98 1174.69,354.54 1174.24,354.86 1173.34,354.94"/>
    </edge>
    <edge id=":108805414_12" function="internal">
        <lane id=":108805414_12_0" index="0" allow="pedestrian bicycle" speed="4.58" length="8.60" width="2.00" shape="1172.84,357.27 1175.84,357.75 1176.92,357.52 1176.09,356.59 1173.34,354.94"/>
    </edge>
    <edge id=":108805414_13" function="internal">
        <lane id=":108805414_13_0" index="0" allow="pedestrian bicycle" speed="5.56" length="9.89" width="2.00" shape="1172.84,357.27 1175.90,357.53 1177.87,356.79 1178.74,355.04 1178.52,352.30"/>
    </edge>
    <edge id=":108805414_14" function="internal">
        <lane id=":108805414_14_0" index="0" allow="pedestrian bicycle" speed="5.56" length="10.77" width="2.00" shape="1172.84,357.27 1175.96,357.47 1178.36,357.13 1180.62,357.11 1183.32,358.31"/>
    </edge>
    <edge id=":108805414_15" function="internal">
        <lane id=":108805414_15_0" index="0" allow="pedestrian bicycle" speed="2.94" length="3.07" width="2.00" shape="1172.84,357.27 1173.68,357.71 1174.00,358.20 1173.79,358.76 1173.07,359.37"/>
    </edge>
    <edge id=":108807839_0" function="internal">
        <lane id=":108807839_0_0" index="0" disallow="tram rail_urban rail rail_electric rail_fast ship" speed="11.11" length="5.03" shape="1311.59,514.67 1311.47,509.65"/>
    </edge>
    <edge id=":108807839_1" function="internal">
        <lane id=":108807839_1_0" index="0" disallow="tram rail_urban rail rail_electric rail_fast ship" speed="11.11" length="5.03" shape="1314.67,509.57 1314.79,514.60"/>
    </edge>
    <edge id=":108808195_0" function="internal">
        <lane id=":108808195_0_0" index="0" allow="pedestrian bicycle" speed="2.89" length="2.92" width="2.00" shape="1378.89,526.17 1379.76,526.42 1380.14,526.83 1380.05,527.38 1379.48,528.08"/>
    </edge>
    <edge id=":108810488_0" function="internal">
        <lane id=":108810488_0_0" index="0" allow="pedestrian bicycle" speed="2.89" length="2.92" width="2.00" shape="1379.30,438.60 1380.06,439.08 1380.32,439.57 1380.08,440.08 1379.34,440.60"/>
    </edge>
    <edge id=":1696386973_0" function="internal">
        <lane id=":1696386973_0_0" index="0" allow="pedestrian bicycle" speed="4.43" length="4.74" width="2.00" shape="1126.82,339.46 1125.48,338.91 1124.40,338.93 1123.61,339.49 1123.08,340.62"/>
    </edge>
    <edge id=":1696386973_1" function="internal">
        <lane id=":1696386973_1_0" index="0" allow="pedestrian bicycle" speed="5.56" length="8.81" width="2.00" shape="1126.82,339.46 1124.45,338.30 1122.75,337.52 1121.35,336.43 1119.90,334.35"/>
    </edge>
    <edge id=":1696386973_2" function="internal">
        <lane id=":1696386973_2_0" index="0" allow="pedestrian bicycle" speed="2.89" length="2.92" width="2.00" shape="1126.82,339.46 1126.41,338.66 1126.43,338.10 1126.89,337.78 1127.79,337.71"/>
    </edge>
    <edge id=":1696386973_3" function="internal">
        <lane id=":1696386973_3_0" index="0" allow="pedestrian bicycle" speed="5.56" length="7.28" width="2.00" shape="1122.67,332.76 1123.78,334.59 1124.73,335.74 1125.93,336.64 1127.79,337.71"/>
    </edge>
    <edge id=":1696386973_4" function="internal">
        <lane id=":1696386973_4_0" index="0" allow="pedestrian delivery bicycle" speed="5.56" length="8.07" shape="1122.67,332.76 1123.35,334.39 1123.65,336.25 1123.56,338.32 1123.08,340.62"/>
    </edge>
    <edge id=":1696386973_5" function="internal">
        <lane id=":1696386973_5_0" index="0" allow="pedestrian delivery bicycle" speed="3.65" length="4.67" shape="1122.67,332.76 1122.58,334.20 1122.08,334.94 1121.19,335.00 1119.90,334.35"/>
    </edge>
    <edge id=":1696386973_6" function="internal">
        <lane id=":1696386973_6_0" index="0" allow="pedestrian delivery bicycle" speed="5.56" length="5.53" shape="1120.00,339.76 1120.36,338.10 1120.46,336.64 1120.31,335.40 1119.90,334.35"/>
    </edge>
    <edge id=":1696386973_7" function="internal">
        <lane id=":1696386973_7_0" index="0" allow="pedestrian bicycle" speed="5.56" length="9.73" width="2.00" shape="1120.00,339.76 1121.06,337.56 1122.72,336.48 1124.96,336.53 1127.79,337.71"/>
    </edge>
    <edge id=":1696386973_8" function="internal">
        <lane id=":1696386973_8_0" index="0" allow="pedestrian delivery bicycle" speed="3.65" length="4.67" shape="1120.00,339.76 1121.09,338.82 1121.97,338.65 1122.63,339.25 1123.08,340.62"/>
    </edge>
    <edge id=":1705398648_0" function="internal">
        <lane id=":1705398648_0_0" index="0" allow="pedestrian bicycle" speed="2.89" length="2.92" width="2.00" shape="1242.28,306.54 1243.13,306.26 1243.68,306.38 1243.92,306.88 1243.84,307.78"/>
    </edge>
    <edge id=":2418403630_0" function="internal">
        <lane id=":2418403630_0_0" index="0" allow="pedestrian delivery bicycle" speed="5.04" length="5.00" shape="1000.03,457.81 998.66,457.70 997.59,458.05 996.80,458.87 996.31,460.14"/>
    </edge>
    <edge id=":2418403630_1" function="internal">
        <lane id=":2418403630_1_0" index="0" allow="pedestrian delivery bicycle" speed="5.56" length="10.16" shape="1000.03,457.81 997.43,456.82 995.77,455.23 995.06,453.05 995.28,450.27"/>
    </edge>
    <edge id=":2418403630_2" function="internal">
        <lane id=":2418403630_2_0" index="0" allow="pedestrian delivery bicycle" speed="3.65" length="4.67" shape="1000.03,457.81 999.04,456.77 998.83,455.90 999.39,455.21 1000.74,454.69"/>
    </edge>
    <edge id=":2418403630_3" function="internal">
        <lane id=":2418403630_3_0" index="0" allow="pedestrian delivery bicycle" speed="5.04" length="5.00" shape="998.40,450.98 998.29,452.35 998.64,453.42 999.46,454.20 1000.74,454.69"/>
    </edge>
    <edge id=":2418403630_4" function="internal">
        <lane id=":2418403630_4_0" index="0" allow="pedestrian delivery bicycle" speed="5.56" length="9.40" shape="998.40,450.98 996.31,460.14"/>
    </edge>
    <edge id=":2418403630_5" function="internal">
        <lane id=":2418403630_5_0" index="0" allow="pedestrian delivery bicycle" speed="3.65" length="4.67" shape="998.40,450.98 997.36,451.97 996.49,452.19 995.80,451.62 995.28,450.27"/>
    </edge>
    <edge id=":2418403630_6" function="internal">
        <lane id=":2418403630_6_0" index="0" allow="pedestrian delivery bicycle" speed="5.56" length="9.40" shape="993.19,459.43 995.28,450.27"/>
    </edge>
    <edge id=":2418403630_7" function="internal">
        <lane id=":2418403630_7_0" index="0" allow="pedestrian delivery bicycle" speed="5.56" length="10.16" shape="993.19,459.43 994.19,456.83 995.78,455.18 997.96,454.46 1000.74,454.69"/>
    </edge>
    <edge id=":2418403630_8" function="internal">
        <lane id=":2418403630_8_0" index="0" allow="pedestrian delivery bicycle" speed="3.65" length="4.67" shape="993.19,459.43 994.24,458.44 995.11,458.23 995.80,458.80 996.31,460.14"/>
    </edge>
    <edge id=":2418403631_0" function="internal">
        <lane id=":2418403631_0_0" index="0" allow="pedestrian delivery bicycle" speed="5.56" length="9.40" shape="1060.07,465.05 1057.86,474.19"/>
    </edge>
    <edge id=":2418403631_1" function="internal">
        <lane id=":2418403631_1_0" index="0" allow="pedestrian delivery bicycle" speed="5.56" length="10.16" shape="1060.07,465.05 1059.04,467.61 1057.43,469.24 1055.23,469.94 1052.44,469.71"/>
    </edge>
    <edge id=":2418403631_2" function="internal">
        <lane id=":2418403631_2_0" index="0" allow="pedestrian delivery bicycle" speed="3.65" length="4.67" shape="1060.07,465.05 1059.01,466.03 1058.14,466.23 1057.45,465.65 1056.96,464.30"/>
    </edge>
    <edge id=":2418403631_3" function="internal">
        <lane id=":2418403631_3_0" index="0" allow="pedestrian delivery bicycle" speed="5.09" length="5.05" shape="1053.15,466.59 1054.54,466.71 1055.64,466.37 1056.45,465.56 1056.96,464.30"/>
    </edge>
    <edge id=":2418403631_4" function="internal">
        <lane id=":2418403631_4_0" index="0" allow="pedestrian delivery bicycle" speed="5.56" length="10.23" shape="1053.15,466.59 1055.77,467.59 1057.43,469.19 1058.13,471.39 1057.86,474.19"/>
    </edge>
    <edge id=":2418403631_5" function="internal">
        <lane id=":2418403631_5_0" index="0" allow="pedestrian delivery bicycle" speed="3.65" length="4.67" shape="1053.15,466.59 1054.14,467.64 1054.35,468.50 1053.79,469.20 1052.44,469.71"/>
    </edge>
    <edge id=":2418403631_6" function="internal">
        <lane id=":2418403631_6_0" index="0" allow="pedestrian delivery bicycle" speed="5.03" length="5.02" shape="1054.75,473.44 1054.88,472.07 1054.54,470.99 1053.73,470.20 1052.44,469.71"/>
    </edge>
    <edge id=":2418403631_7" function="internal">
        <lane id=":2418403631_7_0" index="0" allow="pedestrian delivery bicycle" speed="5.56" length="9.40" shape="1054.75,473.44 1056.96,464.30"/>
    </edge>
    <edge id=":2418403631_8" function="internal">
        <lane id=":2418403631_8_0" index="0" allow="pedestrian delivery bicycle" speed="3.65" length="4.67" shape="1054.75,473.44 1055.81,472.46 1056.68,472.26 1057.36,472.83 1057.86,474.19"/>
    </edge>
    <edge id=":2418403632_0" function="internal">
        <lane id=":2418403632_0_0" index="0" allow="pedestrian delivery bicycle" speed="5.06" length="5.11" shape="996.08,475.34 994.71,475.24 993.63,475.63 992.86,476.49 992.38,477.83"/>
    </edge>
    <edge id=":2418403632_1" function="internal">
        <lane id=":2418403632_1_0" index="0" allow="pedestrian delivery bicycle" speed="5.56" length="9.50" shape="996.08,475.34 986.74,473.59"/>
    </edge>
    <edge id=":2418403632_2" function="internal">
        <lane id=":2418403632_2_0" index="0" allow="pedestrian delivery bicycle" speed="5.56" length="10.22" shape="996.08,475.34 993.45,474.35 991.78,472.76 991.05,470.58 991.28,467.79"/>
    </edge>
    <edge id=":2418403632_3" function="internal">
        <lane id=":2418403632_3_0" index="0" allow="pedestrian delivery bicycle" speed="3.65" length="4.67" shape="996.08,475.34 995.08,474.30 994.87,473.43 995.43,472.74 996.77,472.22"/>
    </edge>
    <edge id=":2418403632_4" function="internal">
        <lane id=":2418403632_4_0" index="0" allow="pedestrian delivery bicycle" speed="5.04" length="5.03" shape="994.40,468.50 994.29,469.87 994.65,470.95 995.48,471.73 996.77,472.22"/>
    </edge>
    <edge id=":2418403632_5" function="internal">
        <lane id=":2418403632_5_0" index="0" allow="pedestrian delivery bicycle" speed="5.56" length="9.55" shape="994.40,468.50 992.38,477.83"/>
    </edge>
    <edge id=":2418403632_6" function="internal">
        <lane id=":2418403632_6_0" index="0" allow="pedestrian delivery bicycle" speed="5.56" length="10.33" shape="994.40,468.50 993.40,471.09 991.79,472.80 989.57,473.63 986.74,473.59"/>
    </edge>
    <edge id=":2418403632_7" function="internal">
        <lane id=":2418403632_7_0" index="0" allow="pedestrian delivery bicycle" speed="3.65" length="4.67" shape="994.40,468.50 993.35,469.50 992.49,469.71 991.79,469.14 991.28,467.79"/>
    </edge>
    <edge id=":2418403632_8" function="internal">
        <lane id=":2418403632_8_0" index="0" allow="pedestrian delivery bicycle" speed="5.34" length="5.43" shape="987.23,470.43 988.73,470.45 989.91,470.02 990.76,469.14 991.28,467.79"/>
    </edge>
    <edge id=":2418403632_9" function="internal">
        <lane id=":2418403632_9_0" index="0" allow="pedestrian delivery bicycle" speed="5.56" length="9.71" shape="987.23,470.43 996.77,472.22"/>
    </edge>
    <edge id=":2418403632_10" function="internal">
        <lane id=":2418403632_10_0" index="0" allow="pedestrian delivery bicycle" speed="5.56" length="10.41" shape="987.23,470.43 989.98,471.26 991.75,472.78 992.55,474.97 992.38,477.83"/>
    </edge>
    <edge id=":2418403632_11" function="internal">
        <lane id=":2418403632_11_0" index="0" allow="pedestrian delivery bicycle" speed="3.65" length="4.67" shape="987.23,470.43 988.29,471.40 988.57,472.25 988.05,472.98 986.74,473.59"/>
    </edge>
    <edge id=":2418403632_12" function="internal">
        <lane id=":2418403632_12_0" index="0" allow="pedestrian delivery bicycle" speed="4.99" length="5.06" shape="989.25,477.19 989.33,475.80 988.94,474.73 988.08,474.00 986.74,473.59"/>
    </edge>
    <edge id=":2418403632_13" function="internal">
        <lane id=":2418403632_13_0" index="0" allow="pedestrian delivery bicycle" speed="5.56" length="9.62" shape="989.25,477.19 991.28,467.79"/>
    </edge>
    <edge id=":2418403632_14" function="internal">
        <lane id=":2418403632_14_0" index="0" allow="pedestrian delivery bicycle" speed="5.56" length="10.33" shape="989.25,477.19 990.20,474.50 991.78,472.77 993.97,472.01 996.77,472.22"/>
    </edge>
    <edge id=":2418403632_15" function="internal">
        <lane id=":2418403632_15_0" index="0" allow="pedestrian delivery bicycle" speed="3.65" length="4.67" shape="989.25,477.19 990.27,476.18 991.13,475.94 991.84,476.50 992.38,477.83"/>
    </edge>
    <edge id=":2418403633_0" function="internal">
        <lane id=":2418403633_0_0" index="0" allow="pedestrian delivery bicycle" speed="5.56" length="9.40" shape="1055.92,482.24 1053.71,491.38"/>
    </edge>
    <edge id=":2418403633_1" function="internal">
        <lane id=":2418403633_1_0" index="0" allow="pedestrian delivery bicycle" speed="5.56" length="10.17" shape="1055.92,482.24 1054.89,484.79 1053.28,486.42 1051.07,487.12 1048.27,486.90"/>
    </edge>
    <edge id=":2418403633_2" function="internal">
        <lane id=":2418403633_2_0" index="0" allow="pedestrian delivery bicycle" speed="3.65" length="4.67" shape="1055.92,482.24 1054.86,483.21 1053.98,483.42 1053.30,482.84 1052.80,481.48"/>
    </edge>
    <edge id=":2418403633_3" function="internal">
        <lane id=":2418403633_3_0" index="0" allow="pedestrian delivery bicycle" speed="5.10" length="5.08" shape="1048.97,483.78 1050.38,483.89 1051.48,483.55 1052.29,482.75 1052.80,481.48"/>
    </edge>
    <edge id=":2418403633_4" function="internal">
        <lane id=":2418403633_4_0" index="0" allow="pedestrian delivery bicycle" speed="5.56" length="10.26" shape="1048.97,483.78 1051.60,484.77 1053.27,486.37 1053.97,488.57 1053.71,491.38"/>
    </edge>
    <edge id=":2418403633_5" function="internal">
        <lane id=":2418403633_5_0" index="0" allow="pedestrian delivery bicycle" speed="3.65" length="4.67" shape="1048.97,483.78 1049.96,484.82 1050.18,485.69 1049.62,486.38 1048.27,486.90"/>
    </edge>
    <edge id=":2418403633_6" function="internal">
        <lane id=":2418403633_6_0" index="0" allow="pedestrian delivery bicycle" speed="5.02" length="5.02" shape="1050.60,490.62 1050.73,489.25 1050.38,488.17 1049.57,487.39 1048.27,486.90"/>
    </edge>
    <edge id=":2418403633_7" function="internal">
        <lane id=":2418403633_7_0" index="0" allow="pedestrian delivery bicycle" speed="5.56" length="9.40" shape="1050.60,490.62 1052.80,481.48"/>
    </edge>
    <edge id=":2418403633_8" function="internal">
        <lane id=":2418403633_8_0" index="0" allow="pedestrian delivery bicycle" speed="3.65" length="4.67" shape="1050.60,490.62 1051.65,489.64 1052.53,489.44 1053.21,490.02 1053.71,491.38"/>
    </edge>
    <edge id=":2418403634_0" function="internal">
        <lane id=":2418403634_0_0" index="0" allow="pedestrian delivery bicycle" speed="5.56" length="9.66" shape="989.19,497.23 988.65,487.59"/>
    </edge>
    <edge id=":2418403634_1" function="internal">
        <lane id=":2418403634_1_0" index="0" allow="pedestrian delivery bicycle" speed="5.56" length="11.66" shape="989.19,497.23 989.47,493.91 990.77,491.78 993.08,490.84 996.41,491.11"/>
    </edge>
    <edge id=":2418403634_2" function="internal">
        <lane id=":2418403634_2_0" index="0" allow="pedestrian delivery bicycle" speed="3.65" length="4.67" shape="989.19,497.23 989.92,495.99 990.69,495.54 991.51,495.90 992.38,497.05"/>
    </edge>
    <edge id=":2418403634_3" function="internal">
        <lane id=":2418403634_3_0" index="0" allow="pedestrian delivery bicycle" speed="4.80" length="5.37" shape="995.71,494.23 994.18,494.11 993.11,494.54 992.51,495.52 992.38,497.05"/>
    </edge>
    <edge id=":2418403634_4" function="internal">
        <lane id=":2418403634_4_0" index="0" allow="pedestrian delivery bicycle" speed="5.56" length="10.47" shape="995.71,494.23 992.72,493.24 990.55,491.81 989.19,489.92 988.65,487.59"/>
    </edge>
    <edge id=":2418403634_5" function="internal">
        <lane id=":2418403634_5_0" index="0" allow="pedestrian delivery bicycle" speed="3.65" length="4.67" shape="995.71,494.23 994.71,493.19 994.50,492.32 995.06,491.63 996.41,491.11"/>
    </edge>
    <edge id=":2418403634_6" function="internal">
        <lane id=":2418403634_6_0" index="0" allow="pedestrian delivery bicycle" speed="5.56" length="6.31" shape="991.84,487.41 992.18,488.66 993.06,489.69 994.47,490.51 996.41,491.11"/>
    </edge>
    <edge id=":2418403634_7" function="internal">
        <lane id=":2418403634_7_0" index="0" allow="pedestrian delivery bicycle" speed="5.56" length="9.66" shape="991.84,487.41 992.38,497.05"/>
    </edge>
    <edge id=":2418403634_8" function="internal">
        <lane id=":2418403634_8_0" index="0" allow="pedestrian delivery bicycle" speed="3.65" length="4.67" shape="991.84,487.41 991.11,488.65 990.33,489.10 989.51,488.74 988.65,487.59"/>
    </edge>
    <edge id=":2418403636_0" function="internal">
        <lane id=":2418403636_0_0" index="0" allow="pedestrian delivery bicycle" speed="5.56" length="9.40" shape="1051.52,500.42 1049.31,509.55"/>
    </edge>
    <edge id=":2418403636_1" function="internal">
        <lane id=":2418403636_1_0" index="0" allow="pedestrian delivery bicycle" speed="5.56" length="10.16" shape="1051.52,500.42 1050.49,502.98 1048.88,504.61 1046.68,505.31 1043.88,505.08"/>
    </edge>
    <edge id=":2418403636_2" function="internal">
        <lane id=":2418403636_2_0" index="0" allow="pedestrian delivery bicycle" speed="3.65" length="4.67" shape="1051.52,500.42 1050.46,501.40 1049.59,501.60 1048.90,501.02 1048.41,499.66"/>
    </edge>
    <edge id=":2418403636_3" function="internal">
        <lane id=":2418403636_3_0" index="0" allow="pedestrian delivery bicycle" speed="5.09" length="5.06" shape="1044.59,501.96 1045.99,502.07 1047.09,501.73 1047.90,500.93 1048.41,499.66"/>
    </edge>
    <edge id=":2418403636_4" function="internal">
        <lane id=":2418403636_4_0" index="0" allow="pedestrian delivery bicycle" speed="5.56" length="10.24" shape="1044.59,501.96 1047.21,502.96 1048.88,504.56 1049.58,506.75 1049.31,509.55"/>
    </edge>
    <edge id=":2418403636_5" function="internal">
        <lane id=":2418403636_5_0" index="0" allow="pedestrian delivery bicycle" speed="3.65" length="4.67" shape="1044.59,501.96 1045.58,503.00 1045.80,503.87 1045.23,504.56 1043.88,505.08"/>
    </edge>
    <edge id=":2418403636_6" function="internal">
        <lane id=":2418403636_6_0" index="0" allow="pedestrian delivery bicycle" speed="5.02" length="5.02" shape="1046.20,508.80 1046.33,507.43 1045.99,506.35 1045.17,505.57 1043.88,505.08"/>
    </edge>
    <edge id=":2418403636_7" function="internal">
        <lane id=":2418403636_7_0" index="0" allow="pedestrian delivery bicycle" speed="5.56" length="9.40" shape="1046.20,508.80 1048.41,499.66"/>
    </edge>
    <edge id=":2418403636_8" function="internal">
        <lane id=":2418403636_8_0" index="0" allow="pedestrian delivery bicycle" speed="3.65" length="4.67" shape="1046.20,508.80 1047.26,507.82 1048.13,507.62 1048.81,508.20 1049.31,509.55"/>
    </edge>
    <edge id=":2418403637_0" function="internal">
        <lane id=":2418403637_0_0" index="0" allow="pedestrian delivery bicycle" speed="5.56" length="9.65" shape="990.27,516.55 989.73,506.92"/>
    </edge>
    <edge id=":2418403637_1" function="internal">
        <lane id=":2418403637_1_0" index="0" allow="pedestrian delivery bicycle" speed="5.56" length="11.65" shape="990.27,516.55 990.56,513.23 991.86,511.10 994.17,510.17 997.49,510.43"/>
    </edge>
    <edge id=":2418403637_2" function="internal">
        <lane id=":2418403637_2_0" index="0" allow="pedestrian delivery bicycle" speed="3.65" length="4.67" shape="990.27,516.55 991.00,515.31 991.78,514.86 992.60,515.22 993.47,516.37"/>
    </edge>
    <edge id=":2418403637_3" function="internal">
        <lane id=":2418403637_3_0" index="0" allow="pedestrian delivery bicycle" speed="4.80" length="5.37" shape="996.79,513.55 995.26,513.43 994.20,513.86 993.60,514.84 993.47,516.37"/>
    </edge>
    <edge id=":2418403637_4" function="internal">
        <lane id=":2418403637_4_0" index="0" allow="pedestrian delivery bicycle" speed="5.56" length="10.46" shape="996.79,513.55 993.81,512.57 991.64,511.14 990.28,509.25 989.73,506.92"/>
    </edge>
    <edge id=":2418403637_5" function="internal">