<?xml version="1.0" encoding="UTF-8"?>

<!-- generated on 2025-02-20 23:41:16 by Eclipse SUMO netedit Version 1.21.0
<neteditConfiguration xmlns:xsi="http://www.w3.org/2001/XMLSchema-instance" xsi:noNamespaceSchemaLocation="http://sumo.dlr.de/xsd/neteditConfiguration.xsd">

    <input>
        <sumo-net-file value="./network/western.net.xml"/>
    </input>

    <output>
        <output-file value="./network/western.net.xml"/>
    </output>

    <processing>
        <geometry.min-radius.fix.railways value="false"/>
        <geometry.max-grade.fix value="false"/>
        <offset.disable-normalization value="true"/>
        <lefthand value="0"/>
    </processing>

    <junctions>
        <no-turnarounds value="true"/>
        <junctions.corner-detail value="5"/>
        <junctions.limit-turn-speed value="5.50"/>
        <rectangular-lane-cut value="0"/>
    </junctions>

    <pedestrian>
        <walkingareas value="0"/>
    </pedestrian>

</neteditConfiguration>
-->

<net version="1.20" junctionCornerDetail="5" limitTurnSpeed="5.50" xmlns:xsi="http://www.w3.org/2001/XMLSchema-instance" xsi:noNamespaceSchemaLocation="http://sumo.dlr.de/xsd/net_file.xsd">

    <location netOffset="-477297.80,-4760930.50" convBoundary="-540.16,33.23,-181.87,313.04" origBoundary="-81.279846,42.999938,-81.272837,43.003920" projParameter="+proj=utm +zone=17 +ellps=WGS84 +datum=WGS84 +units=m +no_defs"/>

    <type id="highway.secondary" priority="11" numLanes="1" speed="27.78" disallow="tram rail_urban rail rail_electric rail_fast ship container cable_car subway aircraft wheelchair scooter drone" oneway="0"/>
    <type id="highway.tertiary" priority="10" numLanes="1" speed="22.22" disallow="tram rail_urban rail rail_electric rail_fast ship container cable_car subway aircraft wheelchair scooter drone" oneway="0"/>

    <edge id=":clusterJ11_J18_J19_J29_#4more_0" function="internal">
        <lane id=":clusterJ11_J18_J19_J29_#4more_0_0" index="0" speed="13.89" length="43.35" shape="-357.51,173.17 -397.30,155.97"/>
    </edge>
    <edge id=":clusterJ11_J18_J19_J29_#4more_1" function="internal">
        <lane id=":clusterJ11_J18_J19_J29_#4more_1_0" index="0" speed="13.61" length="42.61" shape="-357.51,173.17 -364.55,167.13 -371.84,156.70 -377.02,145.53 -377.73,137.26"/>
    </edge>
    <edge id=":clusterJ11_J18_J19_J29_#4more_2" function="internal">
        <lane id=":clusterJ11_J18_J19_J29_#4more_2_0" index="0" speed="8.31" length="14.85" shape="-357.59,145.61 -358.02,148.54 -356.85,151.32 -354.07,153.95 -349.69,156.45"/>
    </edge>
    <edge id=":clusterJ11_J18_J19_J29_#4more_3" function="internal">
        <lane id=":clusterJ11_J18_J19_J29_#4more_3_0" index="0" speed="13.89" length="34.92" shape="-360.54,144.39 -363.82,154.19 -365.70,162.96 -367.16,170.88 -369.19,178.16"/>
    </edge>
    <edge id=":clusterJ11_J18_J19_J29_#4more_4" function="internal">
        <lane id=":clusterJ11_J18_J19_J29_#4more_4_0" index="0" speed="12.70" length="21.50" shape="-363.50,143.16 -369.07,149.13 -378.62,153.98 -381.16,154.62"/>
    </edge>
    <edge id=":clusterJ11_J18_J19_J29_#4more_15" function="internal">
        <lane id=":clusterJ11_J18_J19_J29_#4more_15_0" index="0" speed="12.70" length="16.41" shape="-381.16,154.62 -389.06,156.62 -397.30,155.97"/>
    </edge>
    <edge id=":clusterJ11_J18_J19_J29_#4more_5" function="internal">
        <lane id=":clusterJ11_J18_J19_J29_#4more_5_0" index="0" speed="6.88" length="10.44" shape="-389.56,138.25 -386.48,139.24 -383.98,139.20 -382.05,138.13 -380.68,136.04"/>
    </edge>
    <edge id=":clusterJ11_J18_J19_J29_#4more_6" function="internal">
        <lane id=":clusterJ11_J18_J19_J29_#4more_6_0" index="0" speed="13.89" length="43.89" shape="-390.84,141.18 -349.69,156.45"/>
    </edge>
    <edge id=":clusterJ11_J18_J19_J29_#4more_7" function="internal">
        <lane id=":clusterJ11_J18_J19_J29_#4more_7_0" index="0" speed="13.80" length="31.03" shape="-392.12,144.12 -384.76,150.03 -376.68,160.01 -372.30,167.59"/>
    </edge>
    <edge id=":clusterJ11_J18_J19_J29_#4more_16" function="internal">
        <lane id=":clusterJ11_J18_J19_J29_#4more_16_0" index="0" speed="13.80" length="11.16" shape="-372.30,167.59 -370.58,170.56 -369.19,178.16"/>
    </edge>
    <edge id=":clusterJ11_J18_J19_J29_#4more_8" function="internal">
        <lane id=":clusterJ11_J18_J19_J29_#4more_8_0" index="0" speed="7.75" length="12.55" shape="-393.70,168.95 -393.09,165.75 -393.70,163.01 -395.53,160.73 -398.58,158.90"/>
    </edge>
    <edge id=":clusterJ11_J18_J19_J29_#4more_9" function="internal">
        <lane id=":clusterJ11_J18_J19_J29_#4more_9_0" index="0" speed="13.89" length="35.43" shape="-390.71,170.08 -380.68,136.04"/>
        <lane id=":clusterJ11_J18_J19_J29_#4more_9_1" index="1" speed="13.89" length="35.43" shape="-387.71,171.20 -377.73,137.26"/>
    </edge>
    <edge id=":clusterJ11_J18_J19_J29_#4more_11" function="internal">
        <lane id=":clusterJ11_J18_J19_J29_#4more_11_0" index="0" speed="12.73" length="23.03" shape="-384.71,172.33 -379.12,165.79 -369.10,159.84 -366.48,158.96"/>
    </edge>
    <edge id=":clusterJ11_J18_J19_J29_#4more_17" function="internal">
        <lane id=":clusterJ11_J18_J19_J29_#4more_17_0" index="0" speed="12.73" length="17.25" shape="-366.48,158.96 -358.14,156.17 -349.69,156.45"/>
    </edge>
    <edge id=":clusterJ11_J18_J19_J29_#4more_12" function="internal">
        <lane id=":clusterJ11_J18_J19_J29_#4more_12_0" index="0" speed="6.46" length="9.10" shape="-358.91,176.16 -361.35,175.55 -363.38,175.86 -364.99,177.11 -366.19,179.28"/>
    </edge>
    <edge id=":clusterJ11_J18_J19_J29_#4more_13" function="internal">
        <lane id=":clusterJ11_J18_J19_J29_#4more_13_0" index="0" speed="13.89" length="43.27" shape="-358.91,176.16 -398.58,158.90"/>
    </edge>
    <edge id=":clusterJ11_J18_J19_J29_#4more_14" function="internal">
        <lane id=":clusterJ11_J18_J19_J29_#4more_14_0" index="0" speed="6.83" length="21.76" shape="-358.91,176.16 -349.69,156.45"/>
    </edge>

    <edge id="E0" from="J2" to="clusterJ11_J18_J19_J29_#4more" priority="-1" spreadType="center" shape="-534.18,77.15 -390.33,141.41">
        <lane id="E0_0" index="0" speed="13.89" length="156.99" shape="-532.87,74.23 -389.56,138.25"/>
        <lane id="E0_1" index="1" speed="13.89" length="156.99" shape="-534.18,77.15 -390.84,141.18"/>
        <lane id="E0_2" index="2" speed="13.89" length="156.99" shape="-535.49,80.07 -392.12,144.12"/>
    </edge>
    <edge id="E2" from="clusterJ11_J18_J19_J29_#4more" to="J7" priority="-1" shape="-396.66,154.50 -540.16,91.76">
        <lane id="E2_0" index="0" speed="13.89" length="156.62" shape="-398.58,158.90 -542.08,96.16"/>
        <lane id="E2_1" index="1" speed="13.89" length="156.62" shape="-397.30,155.97 -540.80,93.23"/>
    </edge>
    <edge id="E3" from="J8" to="clusterJ11_J18_J19_J29_#4more" priority="-1" shape="-431.59,308.89 -380.27,164.61">
        <lane id="E3_0" index="0" speed="13.89" length="144.46" shape="-442.14,305.14 -393.70,168.95"/>
        <lane id="E3_1" index="1" speed="13.89" length="144.46" shape="-439.13,306.21 -390.71,170.08"/>
        <lane id="E3_2" index="2" speed="13.89" length="144.46" shape="-436.11,307.28 -387.71,171.20"/>
        <lane id="E3_3" index="3" speed="13.89" length="144.46" shape="-433.10,308.35 -384.71,172.33"/>
    </edge>
    <edge id="E4" from="clusterJ11_J18_J19_J29_#4more" to="J15" priority="-1" shape="-368.09,170.68 -421.54,313.04">
        <lane id="E4_0" index="0" speed="13.89" length="144.68" shape="-366.19,179.28 -417.05,314.73"/>
        <lane id="E4_1" index="1" speed="13.89" length="144.68" shape="-369.19,178.16 -420.04,313.60"/>
    </edge>
    <edge id="E5" from="clusterJ11_J18_J19_J29_#4more" to="J24" priority="-1" shape="-358.50,154.10 -181.87,236.61">
        <lane id="E5_0" index="0" speed="13.89" length="185.97" shape="-349.69,156.45 -181.19,235.16"/>
    </edge>
    <edge id="E6" from="J31" to="clusterJ11_J18_J19_J29_#4more" priority="-1" shape="-185.72,245.28 -366.76,167.45">
        <lane id="E6_0" index="0" speed="13.89" length="186.30" shape="-186.35,246.75 -357.51,173.17"/>
    </edge>
    <edge id="E7" from="J38" to="clusterJ11_J18_J19_J29_#4more" priority="-1" spreadType="center" shape="-317.42,40.23 -361.04,145.59">
        <lane id="E7_0" index="0" speed="13.89" length="112.73" shape="-314.46,41.45 -357.59,145.61"/>
        <lane id="E7_1" index="1" speed="13.89" length="112.73" shape="-317.42,40.23 -360.54,144.39"/>
        <lane id="E7_2" index="2" speed="13.89" length="112.73" shape="-320.38,39.01 -363.50,143.16"/>
    </edge>
    <edge id="E8" from="clusterJ11_J18_J19_J29_#4more" to="J44" priority="-1" shape="-376.83,139.28 -332.86,33.23">
        <lane id="E8_0" index="0" speed="13.89" length="113.28" shape="-380.68,136.04 -337.29,31.39"/>
        <lane id="E8_1" index="1" speed="13.89" length="113.28" shape="-377.73,137.26 -334.34,32.62"/>
    </edge>
    <edge id="E9" from="J31" to="clusterJ11_J18_J19_J29_#4more" priority="-1" shape="-185.72,245.28 -368.09,170.68">
        <lane id="E9_0" index="0" speed="13.89" length="186.46" shape="-186.33,246.76 -358.91,176.16"/>
    </edge>

    <tlLogic id="clusterJ11_J18_J19_J29_#4more" type="static" programID="0" offset="0">
        <phase duration="20" state="rrGGgrrrGGGgrrr"/>
        <phase duration="3"  state="rryygrrryyygrrr"/>
        <phase duration="6"  state="rrrrGrrrrrrGrrr"/>
        <phase duration="3"  state="rrrryrrrrrryrrr"/>
        <phase duration="1"  state="rrrrrrrrrrrrrrr"/>
        <phase duration="20" state="rrrrrGGgrrrrGGg"/>
        <phase duration="3"  state="rrrrryygrrrryyg"/>
        <phase duration="6"  state="rrrrrrrGrrrrrrG"/>
        <phase duration="3"  state="rrrrrrryrrrrrry"/>
        <phase duration="1"  state="rrrrrrrrrrrrrrr"/>
        <phase duration="20" state="GGGrrrrrrrrrGrr"/>
        <phase duration="3"  state="yyyrrrrrrrrryrr"/>
        <phase duration="1"  state="rrrrrrrrrrrrrrr"/>
    </tlLogic>

    <junction id="J15" type="dead_end" x="-421.54" y="313.04" incLanes="E4_0 E4_1" intLanes="" shape="-415.55,315.29 -421.54,313.04"/>
    <junction id="J2" type="dead_end" x="-534.18" y="77.15" incLanes="" intLanes="" shape="-536.14,81.53 -532.22,72.77"/>
    <junction id="J24" type="dead_end" x="-181.87" y="236.61" incLanes="E5_0" intLanes="" shape="-180.52,233.71 -181.87,236.61"/>
    <junction id="J31" type="dead_end" x="-185.72" y="245.28" incLanes="" intLanes="" shape="-185.72,245.28 -186.98,248.22 -185.72,245.28 -186.93,248.24"/>
    <junction id="J38" type="dead_end" x="-317.42" y="40.23" incLanes="" intLanes="" shape="-321.85,38.39 -312.99,42.07"/>
    <junction id="J44" type="dead_end" x="-332.86" y="33.23" incLanes="E8_0 E8_1" intLanes="" shape="-338.77,30.78 -332.86,33.23"/>
    <junction id="J7" type="dead_end" x="-540.16" y="91.76" incLanes="E2_0 E2_1" intLanes="" shape="-542.72,97.62 -540.16,91.76"/>
    <junction id="J8" type="dead_end" x="-431.59" y="308.89" incLanes="" intLanes="" shape="-431.59,308.89 -443.65,304.60"/>
    <junction id="clusterJ11_J18_J19_J29_#4more" type="traffic_light" x="-374.32" y="154.59" incLanes="E6_0 E7_0 E7_1 E7_2 E0_0 E0_1 E0_2 E3_0 E3_1 E3_2 E3_3 E9_0" intLanes=":clusterJ11_J18_J19_J29_#4more_0_0 :clusterJ11_J18_J19_J29_#4more_1_0 :clusterJ11_J18_J19_J29_#4more_2_0 :clusterJ11_J18_J19_J29_#4more_3_0 :clusterJ11_J18_J19_J29_#4more_15_0 :clusterJ11_J18_J19_J29_#4more_5_0 :clusterJ11_J18_J19_J29_#4more_6_0 :clusterJ11_J18_J19_J29_#4more_16_0 :clusterJ11_J18_J19_J29_#4more_8_0 :clusterJ11_J18_J19_J29_#4more_9_0 :clusterJ11_J18_J19_J29_#4more_9_1 :clusterJ11_J18_J19_J29_#4more_17_0 :clusterJ11_J18_J19_J29_#4more_12_0 :clusterJ11_J18_J19_J29_#4more_13_0 :clusterJ11_J18_J19_J29_#4more_14_0" shape="-359.59,177.62 -349.01,155.00 -351.71,153.59 -353.80,152.16 -355.28,150.71 -356.16,149.23 -356.44,147.74 -356.11,146.22 -382.16,135.42 -383.59,137.22 -384.61,137.61 -385.84,137.67 -387.28,137.40 -388.91,136.79 -399.22,160.36 -397.46,161.31 -396.13,162.41 -395.24,163.67 -394.79,165.09 -394.78,166.66 -395.20,168.39 -364.70,179.85 -363.50,177.93 -362.72,177.42 -361.80,177.19 -360.76,177.26">
        <request index="0"  response="010111010011000" foes="110111010011000" cont="0"/>
        <request index="1"  response="100111001011000" foes="100111001011000" cont="0"/>
        <request index="2"  response="000000000000000" foes="100100001000000" cont="0"/>
        <request index="3"  response="000000010000000" foes="010100011000011" cont="0"/>
        <request index="4"  response="000011010000000" foes="000011011000011" cont="1"/>
        <request index="5"  response="000011000000000" foes="000011000000000" cont="0"/>
        <request index="6"  response="000111000011100" foes="100111000011110" cont="0"/>
        <request index="7"  response="010111000011001" foes="010111000011001" cont="1"/>
        <request index="8"  response="000000000000000" foes="010000000000000" cont="0"/>
        <request index="9"  response="000000010000000" foes="010000011110011" cont="0"/>
        <request index="10" response="000000010000000" foes="010000011110011" cont="0"/>
        <request index="11" response="000000010001100" foes="110000011001111" cont="1"/>
        <request index="12" response="000000000000000" foes="000000000000000" cont="0"/>
        <request index="13" response="000111100001000" foes="000111110001001" cont="0"/>
        <request index="14" response="000100001000101" foes="000100001000111" cont="0"/>
    </junction>

    <junction id=":clusterJ11_J18_J19_J29_#4more_15_0" type="internal" x="-381.16" y="154.62" incLanes=":clusterJ11_J18_J19_J29_#4more_4_0 E3_0 E3_1 E3_2" intLanes=":clusterJ11_J18_J19_J29_#4more_0_0 :clusterJ11_J18_J19_J29_#4more_1_0 :clusterJ11_J18_J19_J29_#4more_6_0 :clusterJ11_J18_J19_J29_#4more_7_0 :clusterJ11_J18_J19_J29_#4more_8_0 :clusterJ11_J18_J19_J29_#4more_9_0 :clusterJ11_J18_J19_J29_#4more_9_1 :clusterJ11_J18_J19_J29_#4more_13_0"/>
    <junction id=":clusterJ11_J18_J19_J29_#4more_16_0" type="internal" x="-372.30" y="167.59" incLanes=":clusterJ11_J18_J19_J29_#4more_7_0 E9_0" intLanes=":clusterJ11_J18_J19_J29_#4more_0_0 :clusterJ11_J18_J19_J29_#4more_3_0 :clusterJ11_J18_J19_J29_#4more_4_0 :clusterJ11_J18_J19_J29_#4more_9_0 :clusterJ11_J18_J19_J29_#4more_9_1 :clusterJ11_J18_J19_J29_#4more_11_0 :clusterJ11_J18_J19_J29_#4more_12_0 :clusterJ11_J18_J19_J29_#4more_13_0"/>
    <junction id=":clusterJ11_J18_J19_J29_#4more_17_0" type="internal" x="-366.48" y="158.96" incLanes=":clusterJ11_J18_J19_J29_#4more_11_0 E7_0 E7_1" intLanes=":clusterJ11_J18_J19_J29_#4more_0_0 :clusterJ11_J18_J19_J29_#4more_1_0 :clusterJ11_J18_J19_J29_#4more_2_0 :clusterJ11_J18_J19_J29_#4more_3_0 :clusterJ11_J18_J19_J29_#4more_6_0 :clusterJ11_J18_J19_J29_#4more_7_0 :clusterJ11_J18_J19_J29_#4more_13_0 :clusterJ11_J18_J19_J29_#4more_14_0"/>

    <connection from="E0" to="E8" fromLane="0" toLane="0" via=":clusterJ11_J18_J19_J29_#4more_5_0" tl="clusterJ11_J18_J19_J29_#4more" linkIndex="5" dir="r" state="o"/>
    <connection from="E0" to="E5" fromLane="1" toLane="0" via=":clusterJ11_J18_J19_J29_#4more_6_0" tl="clusterJ11_J18_J19_J29_#4more" linkIndex="6" dir="s" state="o"/>
    <connection from="E0" to="E4" fromLane="2" toLane="1" via=":clusterJ11_J18_J19_J29_#4more_7_0" tl="clusterJ11_J18_J19_J29_#4more" linkIndex="7" dir="l" state="o"/>
    <connection from="E3" to="E2" fromLane="0" toLane="0" via=":clusterJ11_J18_J19_J29_#4more_8_0" tl="clusterJ11_J18_J19_J29_#4more" linkIndex="8" dir="r" state="O"/>
    <connection from="E3" to="E8" fromLane="1" toLane="0" via=":clusterJ11_J18_J19_J29_#4more_9_0" tl="clusterJ11_J18_J19_J29_#4more" linkIndex="9" dir="s" state="O"/>
    <connection from="E3" to="E8" fromLane="2" toLane="1" via=":clusterJ11_J18_J19_J29_#4more_9_1" tl="clusterJ11_J18_J19_J29_#4more" linkIndex="10" dir="s" state="O"/>
    <connection from="E3" to="E5" fromLane="3" toLane="0" via=":clusterJ11_J18_J19_J29_#4more_11_0" tl="clusterJ11_J18_J19_J29_#4more" linkIndex="11" dir="l" state="o"/>
    <connection from="E6" to="E2" fromLane="0" toLane="1" via=":clusterJ11_J18_J19_J29_#4more_0_0" tl="clusterJ11_J18_J19_J29_#4more" linkIndex="0" dir="s" state="o"/>
    <connection from="E6" to="E8" fromLane="0" toLane="1" via=":clusterJ11_J18_J19_J29_#4more_1_0" tl="clusterJ11_J18_J19_J29_#4more" linkIndex="1" dir="l" state="o"/>
    <connection from="E7" to="E5" fromLane="0" toLane="0" via=":clusterJ11_J18_J19_J29_#4more_2_0" tl="clusterJ11_J18_J19_J29_#4more" linkIndex="2" dir="r" state="O"/>
    <connection from="E7" to="E4" fromLane="1" toLane="1" via=":clusterJ11_J18_J19_J29_#4more_3_0" tl="clusterJ11_J18_J19_J29_#4more" linkIndex="3" dir="s" state="O"/>
    <connection from="E7" to="E2" fromLane="2" toLane="1" via=":clusterJ11_J18_J19_J29_#4more_4_0" tl="clusterJ11_J18_J19_J29_#4more" linkIndex="4" dir="l" state="o"/>
    <connection from="E9" to="E4" fromLane="0" toLane="0" via=":clusterJ11_J18_J19_J29_#4more_12_0" tl="clusterJ11_J18_J19_J29_#4more" linkIndex="12" dir="r" state="O"/>
    <connection from="E9" to="E2" fromLane="0" toLane="0" via=":clusterJ11_J18_J19_J29_#4more_13_0" tl="clusterJ11_J18_J19_J29_#4more" linkIndex="13" dir="s" state="o"/>
    <connection from="E9" to="E5" fromLane="0" toLane="0" via=":clusterJ11_J18_J19_J29_#4more_14_0" tl="clusterJ11_J18_J19_J29_#4more" linkIndex="14" dir="r" state="o"/>

    <connection from=":clusterJ11_J18_J19_J29_#4more_0" to="E2" fromLane="0" toLane="1" dir="s" state="M"/>
    <connection from=":clusterJ11_J18_J19_J29_#4more_1" to="E8" fromLane="0" toLane="1" dir="l" state="M"/>
    <connection from=":clusterJ11_J18_J19_J29_#4more_2" to="E5" fromLane="0" toLane="0" dir="r" state="M"/>
    <connection from=":clusterJ11_J18_J19_J29_#4more_3" to="E4" fromLane="0" toLane="1" dir="s" state="M"/>
    <connection from=":clusterJ11_J18_J19_J29_#4more_4" to="E2" fromLane="0" toLane="1" via=":clusterJ11_J18_J19_J29_#4more_15_0" dir="l" state="m"/>
    <connection from=":clusterJ11_J18_J19_J29_#4more_15" to="E2" fromLane="0" toLane="1" dir="l" state="M"/>
    <connection from=":clusterJ11_J18_J19_J29_#4more_5" to="E8" fromLane="0" toLane="0" dir="r" state="M"/>
    <connection from=":clusterJ11_J18_J19_J29_#4more_6" to="E5" fromLane="0" toLane="0" dir="s" state="M"/>
    <connection from=":clusterJ11_J18_J19_J29_#4more_7" to="E4" fromLane="0" toLane="1" via=":clusterJ11_J18_J19_J29_#4more_16_0" dir="l" state="m"/>
    <connection from=":clusterJ11_J18_J19_J29_#4more_16" to="E4" fromLane="0" toLane="1" dir="l" state="M"/>
    <connection from=":clusterJ11_J18_J19_J29_#4more_8" to="E2" fromLane="0" toLane="0" dir="r" state="M"/>
    <connection from=":clusterJ11_J18_J19_J29_#4more_9" to="E8" fromLane="0" toLane="0" dir="s" state="M"/>
    <connection from=":clusterJ11_J18_J19_J29_#4more_9" to="E8" fromLane="1" toLane="1" dir="s" state="M"/>
    <connection from=":clusterJ11_J18_J19_J29_#4more_11" to="E5" fromLane="0" toLane="0" via=":clusterJ11_J18_J19_J29_#4more_17_0" dir="l" state="m"/>
    <connection from=":clusterJ11_J18_J19_J29_#4more_17" to="E5" fromLane="0" toLane="0" dir="l" state="M"/>
    <connection from=":clusterJ11_J18_J19_J29_#4more_12" to="E4" fromLane="0" toLane="0" dir="r" state="M"/>
    <connection from=":clusterJ11_J18_J19_J29_#4more_13" to="E2" fromLane="0" toLane="0" dir="s" state="M"/>
    <connection from=":clusterJ11_J18_J19_J29_#4more_14" to="E5" fromLane="0" toLane="0" dir="r" state="M"/>

</net>
