<?xml version="1.0" encoding="UTF-8"?>

<!-- generated on 2025-01-15 20:51:39 by Eclipse SUMO netedit Version 1.21.0
<neteditConfiguration xmlns:xsi="http://www.w3.org/2001/XMLSchema-instance" xsi:noNamespaceSchemaLocation="http://sumo.dlr.de/xsd/neteditConfiguration.xsd">

    <input>
        <sumo-net-file value="C:\Users\OWNER\Downloads\western.net.xml"/>
        <osm-files value="C:\Users\OWNER\Downloads\map.osm"/>
    </input>

    <output>
        <output-file value="C:\Users\OWNER\Downloads\western.net.xml"/>
    </output>

    <projection>
        <proj.utm value="true"/>
    </projection>

    <processing>
        <geometry.remove value="true"/>
        <offset.disable-normalization value="true"/>
    </processing>

    <tls_building>
        <tls.discard-simple value="true"/>
        <tls.guess-signals value="true"/>
    </tls_building>

    <ramp_guessing>
        <ramps.guess value="true"/>
    </ramp_guessing>

    <junctions>
        <no-turnarounds value="true"/>
        <junctions.join value="true"/>
    </junctions>

</neteditConfiguration>
-->

<net version="1.20" junctionCornerDetail="5" limitTurnSpeed="5.50" xmlns:xsi="http://www.w3.org/2001/XMLSchema-instance" xsi:noNamespaceSchemaLocation="http://sumo.dlr.de/xsd/net_file.xsd">

    <location netOffset="0.00,0.00" convBoundary="476549.83,4760475.33,477734.36,4761513.04" origBoundary="-81.287697,42.996613,-81.273183,43.005957" projParameter="+proj=utm +zone=17 +ellps=WGS84 +datum=WGS84 +units=m +no_defs"/>

    <type id="highway.footway" priority="1" numLanes="1" speed="2.78" allow="pedestrian" oneway="1" width="2.00"/>
    <type id="highway.secondary" priority="11" numLanes="1" speed="27.78" disallow="tram rail_urban rail rail_electric rail_fast ship container cable_car subway aircraft wheelchair scooter drone" oneway="0"/>
    <type id="highway.service" priority="1" numLanes="1" speed="5.56" allow="pedestrian delivery bicycle" oneway="0"/>
    <type id="highway.tertiary" priority="10" numLanes="1" speed="22.22" disallow="tram rail_urban rail rail_electric rail_fast ship container cable_car subway aircraft wheelchair scooter drone" oneway="0"/>

    <edge id=":11587478069_0" function="internal">
        <lane id=":11587478069_0_0" index="0" allow="pedestrian delivery bicycle" speed="5.05" length="5.01" shape="477343.05,4761060.08 477341.71,4761059.77 477340.59,4761059.97 477339.70,4761060.66 477339.03,4761061.86"/>
    </edge>
    <edge id=":11587478069_1" function="internal">
        <lane id=":11587478069_1_0" index="0" allow="pedestrian delivery bicycle" speed="5.56" length="9.59" shape="477343.05,4761060.08 477334.16,4761056.47"/>
    </edge>
    <edge id=":11587478069_2" function="internal">
        <lane id=":11587478069_2_0" index="0" allow="pedestrian delivery bicycle" speed="5.56" length="10.20" shape="477343.05,4761060.08 477340.70,4761058.75 477339.31,4761056.93 477338.88,4761054.61 477339.41,4761051.81"/>
    </edge>
    <edge id=":11587478069_3" function="internal">
        <lane id=":11587478069_3_0" index="0" allow="pedestrian delivery bicycle" speed="5.15" length="5.08" shape="477342.40,4761052.96 477342.13,4761054.36 477342.34,4761055.52 477343.03,4761056.43 477344.19,4761057.09"/>
    </edge>
    <edge id=":11587478069_4" function="internal">
        <lane id=":11587478069_4_0" index="0" allow="pedestrian delivery bicycle" speed="5.56" length="9.52" shape="477342.40,4761052.96 477339.03,4761061.86"/>
    </edge>
    <edge id=":11587478069_5" function="internal">
        <lane id=":11587478069_5_0" index="0" allow="pedestrian delivery bicycle" speed="5.56" length="10.43" shape="477342.40,4761052.96 477341.12,4761055.49 477339.32,4761056.92 477337.00,4761057.25 477334.16,4761056.47"/>
    </edge>
    <edge id=":11587478069_6" function="internal">
        <lane id=":11587478069_6_0" index="0" allow="pedestrian delivery bicycle" speed="4.93" length="5.06" shape="477335.42,4761053.53 477336.79,4761053.90 477337.92,4761053.74 477338.79,4761053.04 477339.41,4761051.81"/>
    </edge>
    <edge id=":11587478069_7" function="internal">
        <lane id=":11587478069_7_0" index="0" allow="pedestrian delivery bicycle" speed="5.56" length="9.46" shape="477335.42,4761053.53 477344.19,4761057.09"/>
    </edge>
    <edge id=":11587478069_8" function="internal">
        <lane id=":11587478069_8_0" index="0" allow="pedestrian delivery bicycle" speed="5.56" length="10.27" shape="477335.42,4761053.53 477337.84,4761054.99 477339.25,4761056.87 477339.64,4761059.16 477339.03,4761061.86"/>
    </edge>
    <edge id=":11587478069_9" function="internal">
        <lane id=":11587478069_9_0" index="0" allow="pedestrian delivery bicycle" speed="5.21" length="5.25" shape="477336.04,4761060.71 477336.35,4761059.34 477336.14,4761058.18 477335.41,4761057.22 477334.16,4761056.47"/>
    </edge>
    <edge id=":11587478069_10" function="internal">
        <lane id=":11587478069_10_0" index="0" allow="pedestrian delivery bicycle" speed="5.56" length="9.52" shape="477336.04,4761060.71 477339.41,4761051.81"/>
    </edge>
    <edge id=":11587478069_11" function="internal">
        <lane id=":11587478069_11_0" index="0" allow="pedestrian delivery bicycle" speed="5.56" length="10.16" shape="477336.04,4761060.71 477337.40,4761058.28 477339.21,4761056.87 477341.47,4761056.47 477344.19,4761057.09"/>
    </edge>
    <edge id=":11587478071_0" function="internal">
        <lane id=":11587478071_0_0" index="0" allow="pedestrian delivery bicycle" speed="5.56" length="7.18" shape="477412.33,4761100.06 477409.87,4761106.81"/>
    </edge>
    <edge id=":11587478071_1" function="internal">
        <lane id=":11587478071_1_0" index="0" allow="pedestrian delivery bicycle" speed="5.56" length="10.21" shape="477412.33,4761100.06 477410.95,4761102.50 477409.13,4761103.90 477406.86,4761104.28 477404.13,4761103.61"/>
    </edge>
    <edge id=":11587478071_2" function="internal">
        <lane id=":11587478071_2_0" index="0" allow="pedestrian delivery bicycle" speed="5.03" length="5.01" shape="477405.32,4761100.64 477406.66,4761100.97 477407.78,4761100.79 477408.67,4761100.10 477409.35,4761098.90"/>
    </edge>
    <edge id=":11587478071_3" function="internal">
        <lane id=":11587478071_3_0" index="0" allow="pedestrian delivery bicycle" speed="5.56" length="8.51" shape="477405.32,4761100.64 477407.77,4761101.90 477409.35,4761103.34 477410.05,4761104.98 477409.87,4761106.81"/>
    </edge>
    <edge id=":11587478071_4" function="internal">
        <lane id=":11587478071_4_0" index="0" allow="pedestrian delivery bicycle" speed="4.59" length="3.74" shape="477406.81,4761105.88 477406.77,4761105.34 477406.31,4761104.78 477405.43,4761104.21 477404.13,4761103.61"/>
    </edge>
    <edge id=":11587478071_5" function="internal">
        <lane id=":11587478071_5_0" index="0" allow="pedestrian delivery bicycle" speed="5.56" length="7.43" shape="477406.81,4761105.88 477409.35,4761098.90"/>
    </edge>
    <edge id=":11587478072_0" function="internal">
        <lane id=":11587478072_0_0" index="0" allow="pedestrian delivery bicycle" speed="5.03" length="5.01" shape="477336.69,4761076.60 477335.36,4761076.27 477334.24,4761076.46 477333.35,4761077.14 477332.67,4761078.34"/>
    </edge>
    <edge id=":11587478072_1" function="internal">
        <lane id=":11587478072_1_0" index="0" allow="pedestrian delivery bicycle" speed="5.56" length="10.15" shape="477336.69,4761076.60 477334.27,4761075.21 477332.86,4761073.39 477332.47,4761071.13 477333.08,4761068.44"/>
    </edge>
    <edge id=":11587478072_2" function="internal">
        <lane id=":11587478072_2_0" index="0" allow="pedestrian delivery bicycle" speed="5.08" length="5.04" shape="477336.06,4761069.59 477335.76,4761070.92 477335.97,4761072.03 477336.67,4761072.94 477337.88,4761073.63"/>
    </edge>
    <edge id=":11587478072_3" function="internal">
        <lane id=":11587478072_3_0" index="0" allow="pedestrian delivery bicycle" speed="5.56" length="9.39" shape="477336.06,4761069.59 477332.67,4761078.34"/>
    </edge>
    <edge id=":11587478072_4" function="internal">
        <lane id=":11587478072_4_0" index="0" allow="pedestrian delivery bicycle" speed="5.56" length="9.37" shape="477329.69,4761077.17 477333.08,4761068.44"/>
    </edge>
    <edge id=":11587478072_5" function="internal">
        <lane id=":11587478072_5_0" index="0" allow="pedestrian delivery bicycle" speed="5.56" length="10.20" shape="477329.69,4761077.17 477331.07,4761074.74 477332.89,4761073.34 477335.17,4761072.97 477337.88,4761073.63"/>
    </edge>
    <edge id=":1558352285_0" function="internal">
        <lane id=":1558352285_0_0" index="0" disallow="tram rail_urban rail rail_electric rail_fast ship container cable_car subway aircraft wheelchair scooter drone" speed="13.89" length="0.10" shape="477486.41,4760727.63 477486.41,4760727.63"/>
    </edge>
    <edge id=":1558352285_1" function="internal">
        <lane id=":1558352285_1_0" index="0" disallow="tram rail_urban rail rail_electric rail_fast ship container cable_car subway aircraft wheelchair scooter drone" speed="13.89" length="0.10" shape="477483.21,4760727.42 477483.21,4760727.42"/>
    </edge>
    <edge id=":1558352319_0" function="internal">
        <lane id=":1558352319_0_0" index="0" disallow="tram rail_urban rail rail_electric rail_fast ship container cable_car subway aircraft wheelchair scooter drone" speed="5.94" length="8.98" shape="477468.12,4761084.68 477465.58,4761084.09 477463.70,4761084.52 477462.48,4761085.98 477461.92,4761088.46"/>
    </edge>
    <edge id=":1558352319_1" function="internal">
        <lane id=":1558352319_1_0" index="0" disallow="tram rail_urban rail rail_electric rail_fast ship container cable_car subway aircraft wheelchair scooter drone" speed="18.05" length="19.27" shape="477468.12,4761084.68 477464.58,4761083.47 477460.64,4761082.53 477455.82,4761081.90 477449.63,4761081.61"/>
        <lane id=":1558352319_1_1" index="1" disallow="tram rail_urban rail rail_electric rail_fast ship container cable_car subway aircraft wheelchair scooter drone" speed="18.05" length="19.27" shape="477468.12,4761084.68 477464.64,4761082.97 477460.81,4761080.94 477456.02,4761079.21 477449.69,4761078.41"/>
    </edge>
    <edge id=":1558352319_3" function="internal">
        <lane id=":1558352319_3_0" index="0" disallow="tram rail_urban rail rail_electric rail_fast ship container cable_car subway aircraft wheelchair scooter drone" speed="10.23" length="4.98" shape="477468.12,4761084.68 477464.30,4761082.48 477463.94,4761082.04"/>
    </edge>
    <edge id=":1558352319_14" function="internal">
        <lane id=":1558352319_14_0" index="0" disallow="tram rail_urban rail rail_electric rail_fast ship container cable_car subway aircraft wheelchair scooter drone" speed="10.23" length="13.28" shape="477463.94,4761082.04 477461.67,4761079.26 477460.23,4761075.04 477459.98,4761069.82"/>
    </edge>
    <edge id=":1558352319_4" function="internal">
        <lane id=":1558352319_4_0" index="0" disallow="tram rail_urban rail rail_electric rail_fast ship container cable_car subway aircraft wheelchair scooter drone" speed="9.07" length="14.19" shape="477463.17,4761070.01 477463.35,4761074.16 477464.42,4761077.49 477466.40,4761080.00 477469.27,4761081.69"/>
    </edge>
    <edge id=":1558352319_5" function="internal">
        <lane id=":1558352319_5_0" index="0" disallow="tram rail_urban rail rail_electric rail_fast ship container cable_car subway aircraft wheelchair scooter drone" speed="13.89" length="18.49" shape="477463.17,4761070.01 477461.92,4761088.46"/>
    </edge>
    <edge id=":1558352319_6" function="internal">
        <lane id=":1558352319_6_0" index="0" disallow="tram rail_urban rail rail_electric rail_fast ship container cable_car subway aircraft wheelchair scooter drone" speed="9.03" length="3.59" shape="477463.17,4761070.01 477462.22,4761073.47"/>
    </edge>
    <edge id=":1558352319_15" function="internal">
        <lane id=":1558352319_15_0" index="0" disallow="tram rail_urban rail rail_electric rail_fast ship container cable_car subway aircraft wheelchair scooter drone" speed="9.03" length="14.17" shape="477462.22,4761073.47 477462.13,4761073.77 477459.54,4761076.42 477455.39,4761077.97 477449.69,4761078.41"/>
    </edge>
    <edge id=":1558352319_7" function="internal">
        <lane id=":1558352319_7_0" index="0" disallow="tram rail_urban rail rail_electric rail_fast ship container cable_car subway aircraft wheelchair scooter drone" speed="5.68" length="10.17" shape="477453.11,4761070.62 477455.96,4761072.85 477458.05,4761073.46 477459.39,4761072.45 477459.98,4761069.82"/>
    </edge>
    <edge id=":1558352319_8" function="internal">
        <lane id=":1558352319_8_0" index="0" disallow="tram rail_urban rail rail_electric rail_fast ship container cable_car subway aircraft wheelchair scooter drone" speed="18.05" length="19.72" shape="477453.11,4761070.62 477457.99,4761074.93 477462.12,4761078.00 477465.78,4761080.15 477469.27,4761081.69"/>
    </edge>
    <edge id=":1558352319_9" function="internal">
        <lane id=":1558352319_9_0" index="0" disallow="tram rail_urban rail rail_electric rail_fast ship container cable_car subway aircraft wheelchair scooter drone" speed="13.17" length="5.29" shape="477450.92,4761072.95 477454.64,4761076.71"/>
    </edge>
    <edge id=":1558352319_10" function="internal">
        <lane id=":1558352319_10_0" index="0" disallow="tram rail_urban rail rail_electric rail_fast ship container cable_car subway aircraft wheelchair scooter drone" speed="5.32" length="4.52" shape="477450.92,4761072.95 477453.06,4761075.39 477453.42,4761076.61"/>
    </edge>
    <edge id=":1558352319_16" function="internal">
        <lane id=":1558352319_16_0" index="0" disallow="tram rail_urban rail rail_electric rail_fast ship container cable_car subway aircraft wheelchair scooter drone" speed="13.17" length="14.10" shape="477454.64,4761076.71 477455.87,4761077.94 477459.36,4761082.18 477461.37,4761085.69 477461.92,4761088.46"/>
    </edge>
    <edge id=":1558352319_17" function="internal">
        <lane id=":1558352319_17_0" index="0" disallow="tram rail_urban rail rail_electric rail_fast ship container cable_car subway aircraft wheelchair scooter drone" speed="5.32" length="4.81" shape="477453.42,4761076.61 477453.57,4761077.11 477452.45,4761078.11 477449.69,4761078.41"/>
    </edge>
    <edge id=":1558352319_11" function="internal">
        <lane id=":1558352319_11_0" index="0" disallow="tram rail_urban rail rail_electric rail_fast ship container cable_car subway aircraft wheelchair scooter drone" speed="7.48" length="12.84" shape="477458.73,4761088.21 477458.35,4761085.38 477456.71,4761083.34 477453.80,4761082.08 477449.63,4761081.61"/>
    </edge>
    <edge id=":1558352319_12" function="internal">
        <lane id=":1558352319_12_0" index="0" disallow="tram rail_urban rail rail_electric rail_fast ship container cable_car subway aircraft wheelchair scooter drone" speed="13.89" length="18.44" shape="477458.73,4761088.21 477459.98,4761069.82"/>
    </edge>
    <edge id=":1558352319_13" function="internal">
        <lane id=":1558352319_13_0" index="0" disallow="tram rail_urban rail rail_electric rail_fast ship container cable_car subway aircraft wheelchair scooter drone" speed="7.56" length="4.36" shape="477458.73,4761088.21 477459.69,4761083.95"/>
    </edge>
    <edge id=":1558352319_18" function="internal">
        <lane id=":1558352319_18_0" index="0" disallow="tram rail_urban rail rail_electric rail_fast ship container cable_car subway aircraft wheelchair scooter drone" speed="7.56" length="10.96" shape="477459.69,4761083.95 477461.76,4761081.45 477464.96,4761080.69 477469.27,4761081.69"/>
    </edge>
    <edge id=":1605910085_0" function="internal">
        <lane id=":1605910085_0_0" index="0" disallow="tram rail_urban rail rail_electric rail_fast ship container cable_car subway aircraft wheelchair scooter drone" speed="13.89" length="9.22" shape="477345.02,4761027.28 477353.50,4761030.68"/>
        <lane id=":1605910085_0_1" index="1" disallow="tram rail_urban rail rail_electric rail_fast ship container cable_car subway aircraft wheelchair scooter drone" speed="13.89" length="9.22" shape="477343.75,4761030.21 477352.39,4761033.68"/>
    </edge>
    <edge id=":1605910085_2" function="internal">
        <lane id=":1605910085_2_0" index="0" allow="pedestrian delivery bicycle" speed="6.21" length="7.74" shape="477343.75,4761030.21 477346.17,4761031.47 477347.76,4761032.78 477348.51,4761034.13 477348.42,4761035.53"/>
    </edge>
    <edge id=":1605910085_3" function="internal">
        <lane id=":1605910085_3_0" index="0" allow="pedestrian delivery bicycle" speed="6.06" length="7.76" shape="477345.42,4761034.42 477346.25,4761033.27 477347.69,4761032.77 477349.73,4761032.91 477352.39,4761033.68"/>
    </edge>
    <edge id=":1605910089_0" function="internal">
        <lane id=":1605910089_0_0" index="0" allow="pedestrian delivery bicycle" speed="5.56" length="3.84" shape="477345.57,4761043.48 477344.34,4761047.11"/>
    </edge>
    <edge id=":1605910089_1" function="internal">
        <lane id=":1605910089_1_0" index="0" allow="pedestrian delivery bicycle" speed="5.56" length="3.91" shape="477341.30,4761046.10 477342.56,4761042.40"/>
    </edge>
    <edge id=":1605910150_0" function="internal">
        <lane id=":1605910150_0_0" index="0" allow="pedestrian delivery bicycle" speed="5.56" length="1.75" shape="477409.81,4761107.00 477410.34,4761105.33"/>
    </edge>
    <edge id=":1605910150_1" function="internal">
        <lane id=":1605910150_1_0" index="0" allow="pedestrian delivery bicycle" speed="5.56" length="1.94" shape="477407.34,4761104.22 477406.75,4761106.08"/>
    </edge>
    <edge id=":1605910234_0" function="internal">
        <lane id=":1605910234_0_0" index="0" allow="pedestrian delivery bicycle" speed="5.56" length="5.94" shape="477394.12,4761149.32 477393.60,4761150.98 477393.47,4761152.17 477393.55,4761153.40 477393.69,4761155.16"/>
    </edge>
    <edge id=":1605910234_1" function="internal">
        <lane id=":1605910234_1_0" index="0" allow="pedestrian delivery bicycle" speed="5.56" length="6.41" shape="477389.94,4761154.46 477390.52,4761152.68 477390.60,4761151.37 477390.65,4761150.04 477391.12,4761148.21"/>
    </edge>
    <edge id=":1605910234_2" function="internal">
        <lane id=":1605910234_2_0" index="0" allow="pedestrian delivery bicycle" speed="5.01" length="9.07" shape="477389.94,4761154.46 477391.43,4761151.69 477392.55,4761150.88 477393.30,4761152.04 477393.69,4761155.16"/>
    </edge>
    <edge id=":4126297709_0" function="internal">
        <lane id=":4126297709_0_0" index="0" disallow="tram rail_urban rail rail_electric rail_fast ship container cable_car subway aircraft wheelchair scooter drone" speed="13.89" length="7.08" shape="477463.64,4761062.75 477463.18,4761069.81"/>
    </edge>
    <edge id=":4126297709_1" function="internal">
        <lane id=":4126297709_1_0" index="0" disallow="tram rail_urban rail rail_electric rail_fast ship container cable_car subway aircraft wheelchair scooter drone" speed="13.89" length="7.10" shape="477459.99,4761069.62 477460.45,4761062.53"/>
    </edge>
    <edge id=":4126297711_0" function="internal">
        <lane id=":4126297711_0_0" index="0" disallow="tram rail_urban rail rail_electric rail_fast ship container cable_car subway aircraft wheelchair scooter drone" speed="22.22" length="7.13" shape="477478.36,4761088.63 477471.71,4761086.06"/>
    </edge>
    <edge id=":4126297711_1" function="internal">
        <lane id=":4126297711_1_0" index="0" disallow="tram rail_urban rail rail_electric rail_fast ship container cable_car subway aircraft wheelchair scooter drone" speed="22.22" length="7.15" shape="477472.85,4761083.07 477479.52,4761085.65"/>
    </edge>
    <edge id=":4126297712_0" function="internal">
        <lane id=":4126297712_0_0" index="0" disallow="tram rail_urban rail rail_electric rail_fast ship container cable_car subway aircraft wheelchair scooter drone" speed="13.89" length="7.31" shape="477461.91,4761088.60 477461.39,4761095.90"/>
    </edge>
    <edge id=":4126297712_1" function="internal">
        <lane id=":4126297712_1_0" index="0" disallow="tram rail_urban rail rail_electric rail_fast ship container cable_car subway aircraft wheelchair scooter drone" speed="13.89" length="7.34" shape="477458.19,4761095.68 477458.72,4761088.36"/>
    </edge>
    <edge id=":4691453038_0" function="internal">
        <lane id=":4691453038_0_0" index="0" allow="pedestrian delivery bicycle" speed="4.53" length="3.91" shape="477349.12,4761042.88 477347.80,4761042.48 477346.78,4761042.41 477346.06,4761042.68 477345.64,4761043.29"/>
    </edge>
    <edge id=":4691453038_1" function="internal">
        <lane id=":4691453038_1_0" index="0" disallow="tram rail_urban rail rail_electric rail_fast ship container cable_car subway aircraft wheelchair scooter drone" speed="13.89" length="9.68" shape="477349.12,4761042.88 477340.11,4761039.21"/>
        <lane id=":4691453038_1_1" index="1" disallow="tram rail_urban rail rail_electric rail_fast ship container cable_car subway aircraft wheelchair scooter drone" speed="13.89" length="9.68" shape="477350.28,4761039.89 477341.36,4761036.27"/>
    </edge>
    <edge id=":4691453038_3" function="internal">
        <lane id=":4691453038_3_0" index="0" allow="pedestrian delivery bicycle" speed="6.23" length="8.02" shape="477350.28,4761039.89 477347.72,4761038.69 477346.06,4761037.39 477345.28,4761036.00 477345.38,4761034.51"/>
    </edge>
    <edge id=":4691453038_4" function="internal">
        <lane id=":4691453038_4_0" index="0" allow="pedestrian delivery bicycle" speed="5.56" length="8.14" shape="477348.38,4761035.63 477345.64,4761043.29"/>
    </edge>
    <edge id=":4691453038_5" function="internal">
        <lane id=":4691453038_5_0" index="0" allow="pedestrian delivery bicycle" speed="6.01" length="7.90" shape="477348.38,4761035.63 477347.52,4761036.85 477346.06,4761037.36 477344.01,4761037.17 477341.36,4761036.27"/>
    </edge>
    <edge id=":4691453038_6" function="internal">
        <lane id=":4691453038_6_0" index="0" allow="pedestrian delivery bicycle" speed="4.83" length="4.30" shape="477342.62,4761042.21 477342.69,4761041.40 477342.29,4761040.62 477341.43,4761039.90 477340.11,4761039.21"/>
    </edge>
    <edge id=":4691453038_7" function="internal">
        <lane id=":4691453038_7_0" index="0" allow="pedestrian delivery bicycle" speed="5.56" length="8.18" shape="477342.62,4761042.21 477345.38,4761034.51"/>
    </edge>
    <edge id=":5123195723_0" function="internal">
        <lane id=":5123195723_0_0" index="0" disallow="tram rail_urban rail rail_electric rail_fast ship container cable_car subway aircraft wheelchair scooter drone" speed="13.89" length="11.17" shape="477443.25,4761063.82 477446.47,4761065.14 477448.52,4761066.37 477450.35,4761067.97 477452.88,4761070.41"/>
        <lane id=":5123195723_0_1" index="1" disallow="tram rail_urban rail rail_electric rail_fast ship container cable_car subway aircraft wheelchair scooter drone" speed="13.89" length="11.17" shape="477442.14,4761066.82 477445.00,4761068.00 477446.82,4761069.12 477448.44,4761070.56 477450.69,4761072.74"/>
    </edge>
    <edge id=":5123195724_0" function="internal">
        <lane id=":5123195724_0_0" index="0" disallow="tram rail_urban rail rail_electric rail_fast ship container cable_car subway aircraft wheelchair scooter drone" speed="13.89" length="5.46" shape="477449.43,4761081.60 477447.67,4761081.50 477446.48,4761081.23 477445.33,4761080.79 477443.67,4761080.12"/>
        <lane id=":5123195724_0_1" index="1" disallow="tram rail_urban rail rail_electric rail_fast ship container cable_car subway aircraft wheelchair scooter drone" speed="13.89" length="5.46" shape="477449.49,4761078.40 477448.05,4761078.31 477447.09,4761078.07 477446.15,4761077.68 477444.80,4761077.13"/>
    </edge>
    <edge id=":5123196217_0" function="internal">
        <lane id=":5123196217_0_0" index="0" disallow="tram rail_urban rail rail_electric rail_fast ship container cable_car subway aircraft wheelchair scooter drone" speed="13.89" length="0.30" shape="477584.12,4760485.49 477583.88,4760485.68"/>
    </edge>
    <edge id=":5123196217_1" function="internal">
        <lane id=":5123196217_1_0" index="0" disallow="tram rail_urban rail rail_electric rail_fast ship container cable_car subway aircraft wheelchair scooter drone" speed="13.89" length="0.30" shape="477581.90,4760483.16 477582.14,4760482.98"/>
    </edge>
    <edge id=":9254438063_0" function="internal">
        <lane id=":9254438063_0_0" index="0" allow="pedestrian delivery bicycle" speed="4.75" length="4.34" shape="477415.62,4761051.22 477415.45,4761052.21 477415.75,4761053.07 477416.52,4761053.80 477417.74,4761054.40"/>
    </edge>
    <edge id=":9254438063_1" function="internal">
        <lane id=":9254438063_1_0" index="0" allow="pedestrian delivery bicycle" speed="4.77" length="4.35" shape="477408.92,4761051.15 477410.24,4761051.48 477411.30,4761051.42 477412.09,4761050.96 477412.62,4761050.10"/>
    </edge>
    <edge id=":9254438063_2" function="internal">
        <lane id=":9254438063_2_0" index="0" disallow="tram rail_urban rail rail_electric rail_fast ship container cable_car subway aircraft wheelchair scooter drone" speed="13.89" length="9.40" shape="477408.92,4761051.15 477417.74,4761054.40"/>
        <lane id=":9254438063_2_1" index="1" disallow="tram rail_urban rail rail_electric rail_fast ship container cable_car subway aircraft wheelchair scooter drone" speed="13.89" length="9.40" shape="477407.82,4761054.15 477416.63,4761057.40"/>
    </edge>
    <edge id=":9254438064_0" function="internal">
        <lane id=":9254438064_0_0" index="0" allow="pedestrian delivery bicycle" speed="5.56" length="9.50" shape="477426.10,4761037.68 477423.60,4761039.03 477421.76,4761039.92 477420.30,4761041.15 477418.94,4761043.49"/>
    </edge>
    <edge id=":9254438064_1" function="internal">
        <lane id=":9254438064_1_0" index="0" allow="pedestrian delivery bicycle" speed="5.56" length="14.62" shape="477426.10,4761037.68 477422.00,4761039.60 477419.23,4761039.37 477417.77,4761037.00 477417.63,4761032.47"/>
    </edge>
    <edge id=":9254438064_2" function="internal">
        <lane id=":9254438064_2_0" index="0" allow="pedestrian delivery bicycle" speed="4.66" length="6.17" shape="477420.82,4761032.77 477420.88,4761034.68 477421.49,4761035.68 477422.66,4761035.78 477424.39,4761034.97"/>
    </edge>
    <edge id=":9254438064_3" function="internal">
        <lane id=":9254438064_3_0" index="0" allow="pedestrian delivery bicycle" speed="5.56" length="10.97" shape="477420.82,4761032.77 477420.61,4761035.90 477420.47,4761038.28 477420.02,4761040.59 477418.94,4761043.49"/>
    </edge>
    <edge id=":9254438064_4" function="internal">
        <lane id=":9254438064_4_0" index="0" allow="pedestrian delivery bicycle" speed="5.56" length="9.94" shape="477416.01,4761042.18 477417.05,4761039.46 477417.40,4761037.48 477417.47,4761035.43 477417.63,4761032.47"/>
    </edge>
    <edge id=":9254438064_5" function="internal">
        <lane id=":9254438064_5_0" index="0" allow="pedestrian delivery bicycle" speed="5.56" length="11.33" shape="477416.01,4761042.18 477417.59,4761039.51 477419.38,4761037.86 477421.59,4761036.58 477424.39,4761034.97"/>
    </edge>
    <edge id=":9254438067_0" function="internal">
        <lane id=":9254438067_0_0" index="0" allow="pedestrian delivery bicycle" speed="5.56" length="4.51" shape="477458.30,4761030.58 477453.78,4761030.71"/>
    </edge>
    <edge id=":9254438067_1" function="internal">
        <lane id=":9254438067_1_0" index="0" allow="pedestrian delivery bicycle" speed="5.56" length="4.53" shape="477453.69,4761027.51 477458.21,4761027.38"/>
    </edge>
    <edge id=":9254438068_0" function="internal">
        <lane id=":9254438068_0_0" index="0" disallow="tram rail_urban rail rail_electric rail_fast ship container cable_car subway aircraft wheelchair scooter drone" speed="13.89" length="9.43" shape="477466.25,4761024.53 477465.60,4761033.94"/>
    </edge>
    <edge id=":9254438068_1" function="internal">
        <lane id=":9254438068_1_0" index="0" allow="pedestrian delivery bicycle" speed="7.12" length="3.09" shape="477466.25,4761024.53 477465.67,4761027.10 477465.40,4761027.47"/>
    </edge>
    <edge id=":9254438068_6" function="internal">
        <lane id=":9254438068_6_0" index="0" allow="pedestrian delivery bicycle" speed="7.12" length="7.12" shape="477465.40,4761027.47 477464.33,4761028.97 477462.23,4761030.12 477459.38,4761030.55"/>
    </edge>
    <edge id=":9254438068_2" function="internal">
        <lane id=":9254438068_2_0" index="0" allow="pedestrian delivery bicycle" speed="5.37" length="5.40" shape="477459.29,4761027.36 477460.86,4761027.13 477462.01,4761026.55 477462.74,4761025.61 477463.05,4761024.31"/>
    </edge>
    <edge id=":9254438068_3" function="internal">
        <lane id=":9254438068_3_0" index="0" allow="pedestrian delivery bicycle" speed="6.79" length="10.64" shape="477459.29,4761027.36 477462.23,4761027.70 477464.26,4761028.91 477465.38,4761030.99 477465.60,4761033.94"/>
    </edge>
    <edge id=":9254438068_4" function="internal">
        <lane id=":9254438068_4_0" index="0" allow="pedestrian delivery bicycle" speed="4.95" length="5.12" shape="477462.41,4761033.72 477462.30,4761032.30 477461.76,4761031.30 477460.79,4761030.72 477459.38,4761030.55"/>
    </edge>
    <edge id=":9254438068_5" function="internal">
        <lane id=":9254438068_5_0" index="0" disallow="tram rail_urban rail rail_electric rail_fast ship container cable_car subway aircraft wheelchair scooter drone" speed="13.89" length="9.43" shape="477462.41,4761033.72 477463.05,4761024.31"/>
    </edge>
    <edge id=":9254438069_0" function="internal">