<?xml version="1.0" encoding="UTF-8"?>

<!-- generated on 2025-02-17 20:16:24.456153 by osmWebWizard.py v1_21_0+0000-d7b3b481c43
<configuration>
    <net-file value="C:\Users\v5run\github\TrafficLightRL\2025-02-17-20-16-22\osm.net.xml.gz"/>
    <output-trip-file value="C:\Users\v5run\github\TrafficLightRL\2025-02-17-20-16-22\osm.passenger.trips.xml"/>
    <route-file value="C:\Users\v5run\github\TrafficLightRL\2025-02-17-20-16-22\osm.passenger.rou.xml"/>
    <prefix value="veh"/>
    <trip-attributes value="departLane=&quot;best&quot;"/>
    <fringe-start-attributes value="departSpeed=&quot;max&quot;"/>
    <vehicle-class value="passenger"/>
    <lanes value="True"/>
    <fringe-factor value="5"/>
    <allow-fringe.min-length value="1000.0"/>
    <via-edge-types value="highway.motorway,highway.motorway_link,highway.trunk_link,highway.primary_link,highway.secondary_link,highway.tertiary_link"/>
    <min-distance value="300.0"/>
    <min-distance.fringe value="10.0"/>
    <remove-loops value="True"/>
    <validate value="True"/>
    <insertion-density value="12.0"/>
</configuration>
-->

<!-- generated on 2025-02-17 20:16:24 by Eclipse SUMO duarouter Version 1.21.0
<duarouterConfiguration xmlns:xsi="http://www.w3.org/2001/XMLSchema-instance" xsi:noNamespaceSchemaLocation="http://sumo.dlr.de/xsd/duarouterConfiguration.xsd">

    <input>
        <net-file value="C:\Users\v5run\github\TrafficLightRL\2025-02-17-20-16-22\osm.net.xml.gz"/>
        <route-files value="C:\Users\v5run\github\TrafficLightRL\2025-02-17-20-16-22\osm.passenger.trips.xml"/>
    </input>

    <output>
        <output-file value="C:\Users\v5run\github\TrafficLightRL\2025-02-17-20-16-22\osm.passenger.trips.xml.tmp"/>
        <alternatives-output value="NUL"/>
        <write-trips value="true"/>
    </output>

    <processing>
        <remove-loops value="true"/>
    </processing>

    <time>
        <begin value="0.0"/>
        <end value="3600.0"/>
    </time>

    <report>
        <no-warnings value="true"/>
        <ignore-errors value="true"/>
        <no-step-log value="true"/>
    </report>

</duarouterConfiguration>
-->

<routes xmlns:xsi="http://www.w3.org/2001/XMLSchema-instance" xsi:noNamespaceSchemaLocation="http://sumo.dlr.de/xsd/routes_file.xsd">
    <vType id="veh_passenger" vClass="passenger"/>
    <trip id="veh1" type="veh_passenger" depart="22.96" departLane="best" departSpeed="max" from="263506114#0" to="33002812#0"/>
    <trip id="veh2" type="veh_passenger" depart="45.92" departLane="best" from="-10390226#1" to="-1183480610#4"/>
    <trip id="veh4" type="veh_passenger" depart="91.84" departLane="best" departSpeed="max" from="-10390227#1" to="-350674974#3"/>
    <trip id="veh5" type="veh_passenger" depart="114.80" departLane="best" departSpeed="max" from="-33023075#3" to="22891216#2"/>
    <trip id="veh6" type="veh_passenger" depart="137.76" departLane="best" departSpeed="max" from="-5090561#4" to="-263506114#4"/>
    <trip id="veh8" type="veh_passenger" depart="183.68" departLane="best" from="-133596276#7" to="-232846231#2"/>
    <trip id="veh9" type="veh_passenger" depart="206.64" departLane="best" from="33023078#0" to="22891216#2"/>
    <trip id="veh10" type="veh_passenger" depart="229.59" departLane="best" from="33002813#0" to="33023072#0"/>
    <trip id="veh11" type="veh_passenger" depart="252.55" departLane="best" departSpeed="max" from="22241344#0" to="5090561#0"/>
    <trip id="veh12" type="veh_passenger" depart="275.51" departLane="best" departSpeed="max" from="-5090561#4" to="22891216#0"/>
    <trip id="veh13" type="veh_passenger" depart="298.47" departLane="best" from="4000042" to="22891216#2"/>
    <trip id="veh14" type="veh_passenger" depart="321.43" departLane="best" departSpeed="max" from="263506114#0" to="-141900529#2"/>
    <trip id="veh15" type="veh_passenger" depart="344.39" departLane="best" departSpeed="max" from="-33023075#3" to="10390227#0"/>
    <trip id="veh16" type="veh_passenger" depart="367.35" departLane="best" departSpeed="max" from="-133596276#8" to="10390226#0"/>
    <trip id="veh17" type="veh_passenger" depart="390.31" departLane="best" from="22891215#0" to="1119086047#0"/>
    <trip id="veh18" type="veh_passenger" depart="413.27" departLane="best" departSpeed="max" from="-5090561#4" to="-4212254#4"/>
    <trip id="veh19" type="veh_passenger" depart="436.23" departLane="best" from="232846231#0" to="33002814"/>
    <trip id="veh20" type="veh_passenger" depart="459.19" departLane="best" from="-232846229" to="1119086047#0"/>
    <trip id="veh21" type="veh_passenger" depart="482.15" departLane="best" departSpeed="max" from="22241344#0" to="33002812#0"/>
    <trip id="veh22" type="veh_passenger" depart="505.11" departLane="best" departSpeed="max" from="-33023075#3" to="-1183480610#4"/>
    <trip id="veh23" type="veh_passenger" depart="528.07" departLane="best" from="4000043#0" to="10390228#0"/>
    <trip id="veh25" type="veh_passenger" depart="573.99" departLane="best" from="4212256#2" to="133596276#8"/>
    <trip id="veh26" type="veh_passenger" depart="596.95" departLane="best" departSpeed="max" from="-33023075#3" to="-5686892#1"/>
    <trip id="veh27" type="veh_passenger" depart="619.91" departLane="best" departSpeed="max" from="22241344#0" to="-83748395#1"/>
    <trip id="veh28" type="veh_passenger" depart="642.86" departLane="best" departSpeed="max" from="22241344#0" to="4652009#0"/>
    <trip id="veh30" type="veh_passenger" depart="688.78" departLane="best" from="-133596276#7" to="-141900529#2"/>
    <trip id="veh31" type="veh_passenger" depart="711.74" departLane="best" departSpeed="max" from="-133596276#8" to="232846228#0"/>
    <trip id="veh32" type="veh_passenger" depart="734.70" departLane="best" departSpeed="max" from="-1110574524#1" to="1119086047#0"/>
    <trip id="veh33" type="veh_passenger" depart="757.66" departLane="best" from="83748395#0" to="22891215#0"/>
    <trip id="veh34" type="veh_passenger" depart="780.62" departLane="best" from="4652064#0" to="4212256#0"/>
    <trip id="veh35" type="veh_passenger" depart="803.58" departLane="best" from="-10390226#1" to="33002814"/>
    <trip id="veh36" type="veh_passenger" depart="826.54" departLane="best" from="232846229" to="22891215#0"/>
    <trip id="veh37" type="veh_passenger" depart="849.50" departLane="best" departSpeed="max" from="-133596276#8" to="1208060641"/>
    <trip id="veh38" type="veh_passenger" depart="872.46" departLane="best" from="1208060641" to="5090561#0"/>
    <trip id="veh39" type="veh_passenger" depart="895.42" departLane="best" from="4000043#0" to="-83748395#1"/>
    <trip id="veh40" type="veh_passenger" depart="918.38" departLane="best" from="21674620#0" to="-33023072#3"/>
    <trip id="veh41" type="veh_passenger" depart="941.34" departLane="best" from="22241344#0-AddedOffRampEdge" to="-263506114#4"/>
    <trip id="veh42" type="veh_passenger" depart="964.30" departLane="best" from="263506114#1" to="22891215#0"/>
    <trip id="veh43" type="veh_passenger" depart="987.26" departLane="best" from="-10390225#7" to="1110574524#0"/>
    <trip id="veh44" type="veh_passenger" depart="1010.22" departLane="best" departSpeed="max" from="-10390227#1" to="5090561#0"/>
    <trip id="veh45" type="veh_passenger" depart="1033.18" departLane="best" from="4000043#0" to="5090561#0"/>
    <trip id="veh46" type="veh_passenger" depart="1056.14" departLane="best" from="33002810#0" to="-263506114#0"/>
    <trip id="veh47" type="veh_passenger" depart="1079.09" departLane="best" departSpeed="max" from="141900529#0" to="22891216#0"/>
    <trip id="veh48" type="veh_passenger" depart="1102.05" departLane="best" departSpeed="max" from="-33023075#3" to="4212257#0"/>
    <trip id="veh49" type="veh_passenger" depart="1125.01" departLane="best" departSpeed="max" from="22241344#0" to="33023072#0"/>
    <trip id="veh50" type="veh_passenger" depart="1147.97" departLane="best" from="33002812#0" to="10390227#0"/>
    <trip id="veh51" type="veh_passenger" depart="1170.93" departLane="best" departSpeed="max" from="-133596276#8" to="-4212256#1"/>
    <trip id="veh52" type="veh_passenger" depart="1193.89" departLane="best" departSpeed="max" from="-5090561#4" to="22891216#2"/>
    <trip id="veh53" type="veh_passenger" depart="1216.85" departLane="best" departSpeed="max" from="-33023075#3" to="-4212255#2"/>
    <trip id="veh54" type="veh_passenger" depart="1239.81" departLane="best" departSpeed="max" from="-33023075#3" to="4652009#0"/>
    <trip id="veh55" type="veh_passenger" depart="1262.77" departLane="best" from="4000042" to="-232846228#1"/>
    <trip id="veh56" type="veh_passenger" depart="1285.73" departLane="best" departSpeed="max" from="-33023075#3" to="33002810#0"/>
    <trip id="veh57" type="veh_passenger" depart="1308.69" departLane="best" departSpeed="max" from="-33023075#3" to="-263506114#0"/>
    <trip id="veh58" type="veh_passenger" depart="1331.65" departLane="best" from="33002813#0" to="-33023078#1"/>
    <trip id="veh59" type="veh_passenger" depart="1354.61" departLane="best" departSpeed="max" from="-133596276#8" to="1183480610#0"/>
    <trip id="veh60" type="veh_passenger" depart="1377.57" departLane="best" from="-10390226#1" to="133596276#8"/>
    <trip id="veh61" type="veh_passenger" depart="1400.53" departLane="best" departSpeed="max" from="263506114#0" to="33002812#0"/>
    <trip id="veh62" type="veh_passenger" depart="1423.49" departLane="best" from="4000042" to="-5686892#1"/>
    <trip id="veh63" type="veh_passenger" depart="1446.45" departLane="best" from="1183480610#0" to="4212256#0"/>
    <trip id="veh64" type="veh_passenger" depart="1469.41" departLane="best" departSpeed="max" from="22241344#0" to="-141900529#2"/>
    <trip id="veh65" type="veh_passenger" depart="1492.36" departLane="best" from="83748395#0" to="4005310"/>
    <trip id="veh66" type="veh_passenger" depart="1515.32" departLane="best" from="4652064#0" to="5090561#0"/>
    <trip id="veh67" type="veh_passenger" depart="1538.28" departLane="best" from="33023078#0" to="-33002812#2"/>
    <trip id="veh68" type="veh_passenger" depart="1561.24" departLane="best" departSpeed="max" from="141900529#0" to="-4212255#0"/>
    <trip id="veh69" type="veh_passenger" depart="1584.20" departLane="best" from="-83748395#1" to="-141900529#2"/>
    <trip id="veh71" type="veh_passenger" depart="1630.12" departLane="best" from="-232846228#1" to="10390227#0"/>
    <trip id="veh72" type="veh_passenger" depart="1653.08" departLane="best" departSpeed="max" from="22241344#0" to="33023075#0"/>
    <trip id="veh73" type="veh_passenger" depart="1676.04" departLane="best" departSpeed="max" from="-1110574524#1" to="22891216#2"/>
    <trip id="veh74" type="veh_passenger" depart="1699.00" departLane="best" departSpeed="max" from="-33023075#3" to="-263506114#0"/>
    <trip id="veh75" type="veh_passenger" depart="1721.96" departLane="best" from="4212254#0" to="-5686892#1"/>
    <trip id="veh76" type="veh_passenger" depart="1744.92" departLane="best" from="22241344#0-AddedOffRampEdge" to="232846228#0"/>
    <trip id="veh77" type="veh_passenger" depart="1767.88" departLane="best" from="-10390226#1" to="22891216#2"/>
    <trip id="veh78" type="veh_passenger" depart="1790.84" departLane="best" departSpeed="max" from="22241344#0" to="5090561#0"/>
    <trip id="veh79" type="veh_passenger" depart="1813.80" departLane="best" from="-33023072#3" to="33002814"/>
    <trip id="veh80" type="veh_passenger" depart="1836.76" departLane="best" departSpeed="max" from="-33023075#3" to="1119086047#0"/>
    <trip id="veh81" type="veh_passenger" depart="1859.72" departLane="best" from="232846228#0" to="10390227#0"/>
    <trip id="veh82" type="veh_passenger" depart="1882.68" departLane="best" from="-4212256#5" to="33023075#0"/>
    <trip id="veh83" type="veh_passenger" depart="1905.64" departLane="best" departSpeed="max" from="-1110574524#1" to="133596276#0"/>
    <trip id="veh84" type="veh_passenger" depart="1928.59" departLane="best" departSpeed="max" from="-1110574524#1" to="-4212254#4"/>
    <trip id="veh85" type="veh_passenger" depart="1951.55" departLane="best" departSpeed="max" from="-5090561#4" to="-263506114#4"/>
    <trip id="veh86" type="veh_passenger" depart="1974.51" departLane="best" from="-33023072#3" to="22891215#0"/>
    <trip id="veh87" type="veh_passenger" depart="1997.47" departLane="best" from="22241344#0-AddedOffRampEdge" to="-5686892#5"/>
    <trip id="veh88" type="veh_passenger" depart="2020.43" departLane="best" from="33002814" to="10390227#0"/>
    <trip id="veh89" type="veh_passenger" depart="2043.39" departLane="best" departSpeed="max" from="-218186575#3" to="-263506114#0"/>
    <trip id="veh90" type="veh_passenger" depart="2066.35" departLane="best" departSpeed="max" from="-133596276#8" to="22891216#1"/>
    <trip id="veh91" type="veh_passenger" depart="2089.31" departLane="best" from="33023078#0" to="22891216#2"/>
    <trip id="veh92" type="veh_passenger" depart="2112.27" departLane="best" departSpeed="max" from="263506114#0" to="-4212254#11"/>
    <trip id="veh93" type="veh_passenger" depart="2135.23" departLane="best" from="33002813#0" to="-83748395#1"/>
    <trip id="veh94" type="veh_passenger" depart="2158.19" departLane="best" departSpeed="max" from="141900529#0" to="4652009#0"/>
    <trip id="veh95" type="veh_passenger" depart="2181.15" departLane="best" from="-10390225#7" to="33023075#0"/>
    <trip id="veh97" type="veh_passenger" depart="2227.07" departLane="best" departSpeed="max" from="263506114#0" to="22891216#0"/>
    <trip id="veh98" type="veh_passenger" depart="2250.03" departLane="best" departSpeed="max" from="-1110574524#1" to="444741638#0"/>
    <trip id="veh99" type="veh_passenger" depart="2272.99" departLane="best" from="-33023072#3" to="22891216#2"/>
    <trip id="veh100" type="veh_passenger" depart="2295.95" departLane="best" departSpeed="max" from="-218186575#3" to="-263506114#0"/>
    <trip id="veh101" type="veh_passenger" depart="2318.91" departLane="best" from="-4212255#2" to="4652009#0"/>
    <trip id="veh102" type="veh_passenger" depart="2341.86" departLane="best" departSpeed="max" from="-33023075#3" to="-263506114#0"/>
    <trip id="veh103" type="veh_passenger" depart="2364.82" departLane="best" departSpeed="max" from="-10390227#1" to="33023072#0"/>
    <trip id="veh104" type="veh_passenger" depart="2387.78" departLane="best" from="33002813#0" to="-83748395#1"/>
    <trip id="veh105" type="veh_passenger" depart="2410.74" departLane="best" from="-33002812#2" to="-263506114#0"/>
    <trip id="veh106" type="veh_passenger" depart="2433.70" departLane="best" from="4000043#0" to="4212255#1"/>
    <trip id="veh108" type="veh_passenger" depart="2479.62" departLane="best" from="1208060641" to="10390227#0"/>
    <trip id="veh109" type="veh_passenger" depart="2502.58" departLane="best" departSpeed="max" from="-10390227#1" to="-33023078#1"/>
    <trip id="veh110" type="veh_passenger" depart="2525.54" departLane="best" from="-4212258#4" to="4212256#0"/>
    <trip id="veh113" type="veh_passenger" depart="2594.42" departLane="best" from="5686892#0" to="22891215#0"/>
    <trip id="veh114" type="veh_passenger" depart="2617.38" departLane="best" departSpeed="max" from="-4212258#4" to="-263506114#0"/>
    <trip id="veh115" type="veh_passenger" depart="2640.34" departLane="best" from="4652064#0" to="33023072#0"/>
    <trip id="veh117" type="veh_passenger" depart="2686.26" departLane="best" departSpeed="max" from="-133596276#8" to="1208060641"/>
    <trip id="veh118" type="veh_passenger" depart="2709.22" departLane="best" departSpeed="max" from="263506114#0" to="10390228#0"/>
    <trip id="veh119" type="veh_passenger" depart="2732.18" departLane="best" from="-5686892#1" to="22891216#2"/>
    <trip id="veh120" type="veh_passenger" depart="2755.14" departLane="best" departSpeed="max" from="-33023075#3" to="22891215#0"/>
    <trip id="veh121" type="veh_passenger" depart="2778.09" departLane="best" departSpeed="max" from="263506114#0" to="33002812#0"/>
    <trip id="veh122" type="veh_passenger" depart="2801.05" departLane="best" departSpeed="max" from="263506114#0" to="10390227#0"/>
    <trip id="veh123" type="veh_passenger" depart="2824.01" departLane="best" from="-4212255#2" to="1119086047#0"/>
    <trip id="veh124" type="veh_passenger" depart="2846.97" departLane="best" from="-83748395#1" to="10390227#0"/>
    <trip id="veh125" type="veh_passenger" depart="2869.93" departLane="best" departSpeed="max" from="-218186575#3" to="1119086047#0"/>
    <trip id="veh127" type="veh_passenger" depart="2915.85" departLane="best" from="1183480610#0" to="-4212255#0"/>
    <trip id="veh128" type="veh_passenger" depart="2938.81" departLane="best" departSpeed="max" from="141900529#0" to="4652009#0"/>
    <trip id="veh129" type="veh_passenger" depart="2961.77" departLane="best" from="22891215#0" to="1110574524#0"/>
    <trip id="veh130" type="veh_passenger" depart="2984.73" departLane="best" from="33002814" to="33023075#0"/>
    <trip id="veh131" type="veh_passenger" depart="3007.69" departLane="best" departSpeed="max" from="-33023075#3" to="133596276#8"/>
    <trip id="veh132" type="veh_passenger" depart="3030.65" departLane="best" departSpeed="max" from="141900529#0" to="-4212258#4"/>
    <trip id="veh133" type="veh_passenger" depart="3053.61" departLane="best" departSpeed="max" from="263506114#0" to="33023075#0"/>
    <trip id="veh134" type="veh_passenger" depart="3076.57" departLane="best" departSpeed="max" from="-133596276#8" to="1183480610#0"/>
    <trip id="veh135" type="veh_passenger" depart="3099.53" departLane="best" departSpeed="max" from="22241344#0" to="-141900529#2"/>
    <trip id="veh136" type="veh_passenger" depart="3122.49" departLane="best" from="1208060641" to="33023078#0"/>
    <trip id="veh137" type="veh_passenger" depart="3145.45" departLane="best" from="22241344#0-AddedOffRampEdge" to="5090561#0"/>
    <trip id="veh138" type="veh_passenger" depart="3168.41" departLane="best" from="4212254#0" to="22891216#2"/>
    <trip id="veh140" type="veh_passenger" depart="3214.32" departLane="best" from="-33023072#3" to="22891216#0"/>
    <trip id="veh141" type="veh_passenger" depart="3237.28" departLane="best" from="4212254#5" to="33023075#0"/>
    <trip id="veh142" type="veh_passenger" depart="3260.24" departLane="best" departSpeed="max" from="141900529#0" to="-83748395#1"/>
    <trip id="veh143" type="veh_passenger" depart="3283.20" departLane="best" from="33002813#0" to="10390225#0"/>
    <trip id="veh144" type="veh_passenger" depart="3306.16" departLane="best" departSpeed="max" from="22241344#0" to="-263506114#0"/>
    <trip id="veh145" type="veh_passenger" depart="3329.12" departLane="best" departSpeed="max" from="-33023075#3" to="22891215#0"/>
    <trip id="veh146" type="veh_passenger" depart="3352.08" departLane="best" departSpeed="max" from="263506114#0" to="-141900529#2"/>
    <trip id="veh147" type="veh_passenger" depart="3375.04" departLane="best" from="-83748395#1" to="22891216#0"/>
    <trip id="veh148" type="veh_passenger" depart="3398.00" departLane="best" from="-10390226#1" to="4652009#0"/>
    <trip id="veh149" type="veh_passenger" depart="3420.96" departLane="best" departSpeed="max" from="22241344#0" to="33002813#0"/>
    <trip id="veh150" type="veh_passenger" depart="3443.92" departLane="best" from="4000042" to="33023075#0"/>
    <trip id="veh151" type="veh_passenger" depart="3466.88" departLane="best" from="10390226#0" to="33023075#0"/>
    <trip id="veh152" type="veh_passenger" depart="3489.84" departLane="best" departSpeed="max" from="22241344#0" to="22891216#2"/>
    <trip id="veh153" type="veh_passenger" depart="3512.80" departLane="best" departSpeed="max" from="-33023075#3" to="-4212255#2"/>
    <trip id="veh154" type="veh_passenger" depart="3535.76" departLane="best" departSpeed="max" from="-5090561#4" to="33002810#0"/>
    <trip id="veh155" type="veh_passenger" depart="3558.72" departLane="best" from="-83748395#1" to="-33002812#2"/>
    <trip id="veh156" type="veh_passenger" depart="3581.68" departLane="best" from="5686892#2" to="22891216#2"/>
</routes>
