<?xml version="1.0" encoding="UTF-8"?>

<!-- generated on 2025-01-01 19:29:36 by Eclipse SUMO GUI Version 1.21.0
-->

<sumoConfiguration xmlns:xsi="http://www.w3.org/2001/XMLSchema-instance" xsi:noNamespaceSchemaLocation="http://sumo.dlr.de/xsd/sumoConfiguration.xsd">

    <input>
        <net-file value="mcmaster.net.xml"/>

    </input>

</sumoConfiguration>
