<?xml version="1.0" encoding="UTF-8"?>

<!-- generated on 2025-01-17 13:01:19 by Eclipse SUMO netedit Version 1.21.0
<neteditConfiguration xmlns:xsi="http://www.w3.org/2001/XMLSchema-instance" xsi:noNamespaceSchemaLocation="http://sumo.dlr.de/xsd/neteditConfiguration.xsd">

    <input>
        <sumocfg-file value="C:\Users\krist\Sumo\2025-01-17-12-59-48\osm.sumocfg"/>
        <additional-files value="C:\Users\krist\Sumo\2025-01-17-12-59-48\osm.poly.xml.gz"/>
        <route-files value="C:\Users\krist\Sumo\2025-01-17-12-59-48\osm.passenger.trips.xml"/>
        <sumo-net-file value="C:\Users\krist\OneDrive\Desktop\GDSC\TrafficLightRL\McMaster\network\mcmaster_good.net.xml"/>
    </input>

    <output>
        <output-file value="C:\Users\krist\OneDrive\Desktop\GDSC\TrafficLightRL\McMaster\network\mcmaster_good.net.xml"/>
        <output.street-names value="true"/>
    </output>

    <processing>
        <geometry.min-radius.fix.railways value="false"/>
        <geometry.max-grade.fix value="false"/>
        <offset.disable-normalization value="true"/>
        <lefthand value="0"/>
    </processing>

    <junctions>
        <no-turnarounds value="true"/>
        <junctions.corner-detail value="5"/>
        <junctions.limit-turn-speed value="5.50"/>
        <rectangular-lane-cut value="0"/>
    </junctions>

    <pedestrian>
        <walkingareas value="0"/>
    </pedestrian>

    <netedit>
        <ignore.routeelements value="false"/>
    </netedit>

</neteditConfiguration>
-->

<net version="1.20" junctionCornerDetail="5" limitTurnSpeed="5.50" xmlns:xsi="http://www.w3.org/2001/XMLSchema-instance" xsi:noNamespaceSchemaLocation="http://sumo.dlr.de/xsd/net_file.xsd">

    <location netOffset="8896793.25,-5351082.56" convBoundary="0.00,0.00,486.33,432.16" origBoundary="-79.921254,43.256415,-79.916885,43.259242" projParameter="+proj=merc +a=6378137 +b=6378137 +lat_ts=0.0 +lon_0=0.0 +x_0=0.0 +y_0=0 +k=1.0 +units=m +nadgrids=@null +wktext +no_defs"/>

    <type id="highway.pedestrian" priority="1" numLanes="1" speed="2.78" allow="pedestrian" oneway="1" width="2.00"/>
    <type id="highway.primary" priority="12" numLanes="2" speed="27.78" disallow="tram rail_urban rail rail_electric rail_fast ship container cable_car subway aircraft wheelchair scooter drone" oneway="0"/>
    <type id="highway.primary_link" priority="7" numLanes="1" speed="22.22" disallow="tram rail_urban rail rail_electric rail_fast ship container cable_car subway aircraft wheelchair scooter drone" oneway="0"/>
    <type id="highway.residential" priority="3" numLanes="1" speed="13.89" disallow="tram rail_urban rail rail_electric rail_fast ship container cable_car subway aircraft wheelchair scooter drone" oneway="0"/>
    <type id="highway.service" priority="1" numLanes="1" speed="5.56" allow="pedestrian delivery bicycle" oneway="0"/>
    <type id="highway.steps" priority="1" numLanes="1" speed="1.39" allow="pedestrian" oneway="1" width="2.00"/>
    <type id="highway.tertiary" priority="10" numLanes="1" speed="22.22" disallow="tram rail_urban rail rail_electric rail_fast ship container cable_car subway aircraft wheelchair scooter drone" oneway="0"/>
    <type id="highway.unclassified" priority="4" numLanes="1" speed="13.89" disallow="tram rail_urban rail rail_electric rail_fast ship container cable_car subway aircraft wheelchair scooter drone" oneway="0"/>

    <edge id=":10217372051_0" function="internal">
        <lane id=":10217372051_0_0" index="0" disallow="tram rail_urban rail rail_electric rail_fast ship container cable_car subway aircraft wheelchair scooter drone" speed="3.65" length="4.67" shape="24.11,16.79 25.47,17.27 26.06,17.94 25.87,18.82 24.91,19.89"/>
    </edge>
    <edge id=":106302129_0" function="internal">
        <lane id=":106302129_0_0" index="0" disallow="tram rail_urban rail rail_electric rail_fast ship container cable_car subway aircraft wheelchair scooter drone" speed="3.65" length="4.67" shape="431.36,56.90 431.75,55.51 432.38,54.88 433.27,55.01 434.40,55.90"/>
    </edge>
    <edge id=":11590891485_0" function="internal">
        <lane id=":11590891485_0_0" index="0" allow="pedestrian delivery bicycle" speed="8.33" length="7.57" shape="439.74,267.11 437.63,267.42 436.34,268.25 435.11,269.35 433.16,270.48"/>
    </edge>
    <edge id=":11590891485_1" function="internal">
        <lane id=":11590891485_1_0" index="0" disallow="tram rail_urban rail rail_electric rail_fast ship container cable_car subway aircraft wheelchair scooter drone" speed="11.11" length="7.82" shape="439.74,267.11 431.92,267.03"/>
    </edge>
    <edge id=":11590891495_0" function="internal">
        <lane id=":11590891495_0_0" index="0" allow="pedestrian delivery bicycle" speed="5.56" length="8.14" shape="418.11,272.11 416.51,273.01 415.36,274.42 414.68,276.34 414.45,278.78"/>
    </edge>
    <edge id=":11590891495_1" function="internal">
        <lane id=":11590891495_1_0" index="0" allow="pedestrian delivery bicycle" speed="5.56" length="8.10" shape="412.80,270.98 413.82,273.14 414.30,274.72 414.44,276.38 414.45,278.78"/>
    </edge>
    <edge id=":11948212139_0" function="internal">
        <lane id=":11948212139_0_0" index="0" allow="pedestrian delivery bicycle" speed="5.05" length="5.02" shape="150.30,65.62 149.68,64.41 148.81,63.68 147.70,63.44 146.34,63.70"/>
    </edge>
    <edge id=":11948212139_1" function="internal">
        <lane id=":11948212139_1_0" index="0" disallow="tram rail_urban rail rail_electric rail_fast ship container cable_car subway aircraft wheelchair scooter drone" speed="8.33" length="9.40" shape="150.30,65.62 147.24,56.73"/>
    </edge>
    <edge id=":11948212139_2" function="internal">
        <lane id=":11948212139_2_0" index="0" disallow="tram rail_urban rail rail_electric rail_fast ship container cable_car subway aircraft wheelchair scooter drone" speed="8.33" length="9.40" shape="150.27,55.69 153.33,64.58"/>
    </edge>
    <edge id=":11948212139_3" function="internal">
        <lane id=":11948212139_3_0" index="0" allow="pedestrian delivery bicycle" speed="6.86" length="3.27" shape="150.27,55.69 150.80,58.43 150.70,58.90"/>
    </edge>
    <edge id=":11948212139_7" function="internal">
        <lane id=":11948212139_7_0" index="0" allow="pedestrian delivery bicycle" speed="6.86" length="6.91" shape="150.70,58.90 150.32,60.68 148.83,62.44 146.34,63.70"/>
    </edge>
    <edge id=":11948212139_4" function="internal">
        <lane id=":11948212139_4_0" index="0" allow="pedestrian delivery bicycle" speed="5.04" length="5.00" shape="145.31,60.67 146.54,60.05 147.27,59.19 147.50,58.08 147.24,56.73"/>
    </edge>
    <edge id=":11948212139_5" function="internal">
        <lane id=":11948212139_5_0" index="0" allow="pedestrian delivery bicycle" speed="6.87" length="10.16" shape="145.31,60.67 148.05,60.15 150.30,60.63 152.06,62.11 153.33,64.58"/>
    </edge>
    <edge id=":11948212139_6" function="internal">
        <lane id=":11948212139_6_0" index="0" allow="pedestrian delivery bicycle" speed="3.65" length="4.67" shape="145.31,60.67 146.71,61.04 147.34,61.67 147.22,62.56 146.34,63.70"/>
    </edge>
    <edge id=":12502478632_0" function="internal">
        <lane id=":12502478632_0_0" index="0" allow="emergency authority bicycle" speed="5.56" length="11.21" shape="435.33,361.35 446.54,361.47"/>
    </edge>
    <edge id=":12502478632_1" function="internal">
        <lane id=":12502478632_1_0" index="0" allow="emergency authority bicycle" speed="5.56" length="9.03" shape="435.33,361.35 437.77,361.73 439.50,362.80 440.51,364.57 440.81,367.04"/>
    </edge>
    <edge id=":12502478634_0" function="internal">
        <lane id=":12502478634_0_0" index="0" allow="emergency authority bicycle" speed="5.56" length="11.16" shape="445.96,385.20 434.81,384.90"/>
    </edge>
    <edge id=":12502478634_1" function="internal">
        <lane id=":12502478634_1_0" index="0" allow="emergency authority bicycle" speed="5.56" length="9.01" shape="440.52,379.43 440.11,381.86 439.03,383.59 437.26,384.60 434.81,384.90"/>
    </edge>
    <edge id=":12507462577_0" function="internal">
        <lane id=":12507462577_0_0" index="0" allow="pedestrian delivery bicycle" speed="3.65" length="4.67" shape="19.77,384.63 18.93,385.81 18.12,386.18 17.33,385.75 16.57,384.53"/>
    </edge>
    <edge id=":12507462580_0" function="internal">
        <lane id=":12507462580_0_0" index="0" allow="pedestrian delivery bicycle" speed="5.56" length="12.31" shape="42.20,295.71 41.80,299.00 40.99,301.69 39.72,304.23 37.97,307.09"/>
    </edge>
    <edge id=":12507462580_1" function="internal">
        <lane id=":12507462580_1_0" index="0" allow="pedestrian delivery bicycle" speed="5.56" length="12.08" shape="42.20,295.71 41.52,298.42 39.81,300.31 37.06,301.37 33.27,301.60"/>
    </edge>
    <edge id=":12507462580_2" function="internal">
        <lane id=":12507462580_2_0" index="0" allow="pedestrian delivery bicycle" speed="3.65" length="4.67" shape="42.20,295.71 41.34,296.87 40.52,297.23 39.74,296.79 39.00,295.55"/>
    </edge>
    <edge id=":12507462580_3" function="internal">
        <lane id=":12507462580_3_0" index="0" allow="pedestrian delivery bicycle" speed="5.56" length="7.00" shape="33.40,298.41 35.79,298.31 37.52,297.80 38.59,296.88 39.00,295.55"/>
    </edge>
    <edge id=":12507462580_4" function="internal">
        <lane id=":12507462580_4_0" index="0" allow="pedestrian delivery bicycle" speed="5.56" length="13.37" shape="33.40,298.41 37.36,299.10 39.44,300.78 39.64,303.44 37.97,307.09"/>
    </edge>
    <edge id=":12507462580_5" function="internal">
        <lane id=":12507462580_5_0" index="0" allow="pedestrian delivery bicycle" speed="3.65" length="4.67" shape="33.40,298.41 34.57,299.25 34.93,300.07 34.50,300.85 33.27,301.60"/>
    </edge>
    <edge id=":12507462580_6" function="internal">
        <lane id=":12507462580_6_0" index="0" allow="pedestrian delivery bicycle" speed="4.68" length="5.82" shape="35.26,305.38 35.99,303.80 35.90,302.64 34.99,301.90 33.27,301.60"/>
    </edge>
    <edge id=":12507462580_7" function="internal">
        <lane id=":12507462580_7_0" index="0" allow="pedestrian delivery bicycle" speed="5.56" length="10.72" shape="35.26,305.38 36.93,302.77 38.03,300.75 38.68,298.60 39.00,295.55"/>
    </edge>
    <edge id=":12507462580_8" function="internal">
        <lane id=":12507462580_8_0" index="0" allow="pedestrian delivery bicycle" speed="3.65" length="4.67" shape="35.26,305.38 36.58,304.80 37.47,304.88 37.93,305.65 37.97,307.09"/>
    </edge>
    <edge id=":12507462581_0" function="internal">
        <lane id=":12507462581_0_0" index="0" allow="pedestrian delivery bicycle" speed="5.12" length="5.10" shape="45.67,287.95 44.32,288.11 43.33,288.69 42.70,289.68 42.44,291.08"/>
    </edge>
    <edge id=":12507462581_1" function="internal">
        <lane id=":12507462581_1_0" index="0" allow="pedestrian delivery bicycle" speed="5.56" length="9.40" shape="45.67,287.95 36.27,287.69"/>
    </edge>
    <edge id=":12507462581_2" function="internal">
        <lane id=":12507462581_2_0" index="0" allow="pedestrian delivery bicycle" speed="3.65" length="4.67" shape="45.67,287.95 44.49,287.11 44.11,286.30 44.53,285.51 45.76,284.75"/>
    </edge>
    <edge id=":12507462581_3" function="internal">
        <lane id=":12507462581_3_0" index="0" allow="pedestrian delivery bicycle" speed="5.56" length="9.40" shape="36.36,284.49 45.76,284.75"/>
    </edge>
    <edge id=":12507462581_4" function="internal">
        <lane id=":12507462581_4_0" index="0" allow="pedestrian delivery bicycle" speed="5.56" length="10.28" shape="36.36,284.49 39.14,284.97 41.09,286.22 42.18,288.26 42.44,291.08"/>
    </edge>
    <edge id=":12507462581_5" function="internal">
        <lane id=":12507462581_5_0" index="0" allow="pedestrian delivery bicycle" speed="3.65" length="4.67" shape="36.36,284.49 37.53,285.32 37.91,286.13 37.49,286.92 36.27,287.69"/>
    </edge>
    <edge id=":12507462581_6" function="internal">
        <lane id=":12507462581_6_0" index="0" allow="pedestrian delivery bicycle" speed="5.01" length="5.03" shape="39.24,290.91 39.12,289.53 38.58,288.54 37.63,287.92 36.27,287.69"/>
    </edge>
    <edge id=":12507462581_7" function="internal">
        <lane id=":12507462581_7_0" index="0" allow="pedestrian delivery bicycle" speed="5.56" length="10.17" shape="39.24,290.91 39.77,288.15 41.04,286.20 43.03,285.07 45.76,284.75"/>
    </edge>
    <edge id=":12507462581_8" function="internal">
        <lane id=":12507462581_8_0" index="0" allow="pedestrian delivery bicycle" speed="3.65" length="4.67" shape="39.24,290.91 40.11,289.75 40.93,289.40 41.70,289.84 42.44,291.08"/>
    </edge>
    <edge id=":12507462590_0" function="internal">
        <lane id=":12507462590_0_0" index="0" allow="pedestrian delivery bicycle" speed="3.65" length="4.67" shape="27.51,301.37 26.34,300.52 25.97,299.71 26.40,298.92 27.63,298.17"/>
    </edge>
    <edge id=":12507462592_0" function="internal">
        <lane id=":12507462592_0_0" index="0" allow="pedestrian delivery bicycle" speed="3.65" length="4.67" shape="97.23,264.57 97.87,263.27 98.61,262.77 99.46,263.07 100.41,264.15"/>
    </edge>
    <edge id=":12507462594_0" function="internal">
        <lane id=":12507462594_0_0" index="0" allow="pedestrian delivery bicycle" speed="3.65" length="4.67" shape="105.56,356.34 104.75,357.54 103.95,357.93 103.15,357.52 102.36,356.32"/>
    </edge>
    <edge id=":1942234323_0" function="internal">
        <lane id=":1942234323_0_0" index="0" disallow="tram rail_urban rail rail_electric rail_fast ship container cable_car subway aircraft wheelchair scooter drone" speed="11.11" length="12.15" shape="229.95,292.18 227.31,289.59 225.74,287.60 224.39,285.42 222.39,282.28"/>
        <lane id=":1942234323_0_1" index="1" disallow="tram rail_urban rail rail_electric rail_fast ship container cable_car subway aircraft wheelchair scooter drone" speed="11.11" length="12.15" shape="232.09,289.80 229.54,287.29 228.04,285.34 226.75,283.21 224.82,280.16"/>
        <lane id=":1942234323_0_2" index="2" disallow="tram rail_urban rail rail_electric rail_fast ship container cable_car subway aircraft wheelchair scooter drone" speed="11.11" length="12.15" shape="234.24,287.43 231.78,284.99 230.34,283.08 229.11,281.00 227.24,278.03"/>
    </edge>
    <edge id=":1942234323_3" function="internal">
        <lane id=":1942234323_3_0" index="0" disallow="tram rail_urban rail rail_electric rail_fast ship container cable_car subway aircraft wheelchair scooter drone" speed="3.65" length="1.44" shape="234.24,287.43 233.89,286.03"/>
    </edge>
    <edge id=":1942234323_8" function="internal">
        <lane id=":1942234323_8_0" index="0" disallow="tram rail_urban rail rail_electric rail_fast ship container cable_car subway aircraft wheelchair scooter drone" speed="3.65" length="3.23" shape="233.89,286.03 234.13,285.17 234.96,284.84 236.39,285.06"/>
    </edge>
    <edge id=":1942234323_4" function="internal">
        <lane id=":1942234323_4_0" index="0" disallow="tram rail_urban rail rail_electric rail_fast ship container cable_car subway aircraft wheelchair scooter drone" speed="12.42" length="11.36" shape="235.49,272.19 235.72,275.40 235.78,277.91 236.46,280.19 238.53,282.68"/>
    </edge>
    <edge id=":1942234323_5" function="internal">
        <lane id=":1942234323_5_0" index="0" disallow="tram rail_urban rail rail_electric rail_fast ship container cable_car subway aircraft wheelchair scooter drone" speed="11.11" length="11.23" shape="232.09,273.78 233.82,276.57 234.94,278.56 236.24,280.38 238.53,282.68"/>
        <lane id=":1942234323_5_1" index="1" disallow="tram rail_urban rail rail_electric rail_fast ship container cable_car subway aircraft wheelchair scooter drone" speed="11.11" length="11.23" shape="229.67,275.91 231.47,278.78 232.64,280.82 234.01,282.68 236.39,285.06"/>
    </edge>
    <edge id=":1942234323_7" function="internal">
        <lane id=":1942234323_7_0" index="0" disallow="tram rail_urban rail rail_electric rail_fast ship container cable_car subway aircraft wheelchair scooter drone" speed="3.66" length="1.45" shape="229.67,275.91 229.86,277.35"/>
    </edge>
    <edge id=":1942234323_9" function="internal">
        <lane id=":1942234323_9_0" index="0" disallow="tram rail_urban rail rail_electric rail_fast ship container cable_car subway aircraft wheelchair scooter drone" speed="3.66" length="3.26" shape="229.86,277.35 229.52,278.18 228.65,278.41 227.24,278.03"/>
    </edge>
    <edge id=":249638043_0" function="internal">
        <lane id=":249638043_0_0" index="0" allow="pedestrian delivery bicycle" speed="6.24" length="6.80" shape="329.28,315.30 328.18,313.99 326.82,313.26 325.20,313.09 323.32,313.49"/>
    </edge>
    <edge id=":249638043_1" function="internal">
        <lane id=":249638043_1_0" index="0" allow="pedestrian delivery bicycle" speed="5.56" length="10.51" shape="329.28,315.30 323.77,306.34"/>
    </edge>
    <edge id=":249638043_2" function="internal">
        <lane id=":249638043_2_0" index="0" allow="pedestrian delivery bicycle" speed="3.65" length="4.67" shape="329.28,315.30 329.34,313.86 329.81,313.10 330.70,313.02 332.01,313.62"/>
    </edge>
    <edge id=":249638043_3" function="internal">
        <lane id=":249638043_3_0" index="0" allow="pedestrian delivery bicycle" speed="4.95" length="5.11" shape="333.22,309.41 332.05,310.21 331.46,311.18 331.45,312.32 332.01,313.62"/>
    </edge>
    <edge id=":249638043_4" function="internal">
        <lane id=":249638043_4_0" index="0" disallow="tram rail_urban rail rail_electric rail_fast ship container cable_car subway aircraft wheelchair scooter drone" speed="11.11" length="10.51" shape="333.22,309.41 330.36,310.81 328.37,311.70 326.33,312.46 323.32,313.49"/>
        <lane id=":249638043_4_1" index="1" disallow="tram rail_urban rail rail_electric rail_fast ship container cable_car subway aircraft wheelchair scooter drone" speed="11.11" length="10.51" shape="331.80,306.54 329.05,307.89 327.14,308.74 325.18,309.47 322.29,310.45"/>
    </edge>
    <edge id=":249638043_6" function="internal">
        <lane id=":249638043_6_0" index="0" allow="pedestrian delivery bicycle" speed="6.65" length="8.81" shape="331.80,306.54 329.03,307.66 326.77,307.99 325.02,307.56 323.77,306.34"/>
    </edge>
    <edge id=":249638043_7" function="internal">
        <lane id=":249638043_7_0" index="0" allow="pedestrian delivery bicycle" speed="5.56" length="10.52" shape="326.50,304.66 332.01,313.62"/>
    </edge>
    <edge id=":249638043_8" function="internal">
        <lane id=":249638043_8_0" index="0" allow="pedestrian delivery bicycle" speed="5.89" length="8.45" shape="326.50,304.66 327.07,306.38 326.56,307.92 324.97,309.28 322.29,310.45"/>
    </edge>
    <edge id=":249638043_9" function="internal">
        <lane id=":249638043_9_0" index="0" allow="pedestrian delivery bicycle" speed="3.65" length="4.67" shape="326.50,304.66 326.45,306.10 325.98,306.86 325.08,306.94 323.77,306.34"/>
    </edge>
    <edge id=":2609993870_0" function="internal">
        <lane id=":2609993870_0_0" index="0" disallow="tram rail_urban rail rail_electric rail_fast ship container cable_car subway aircraft wheelchair scooter drone" speed="18.05" length="15.81" shape="278.34,234.91 273.25,234.98 269.38,235.32 266.05,235.78 262.60,236.20"/>
    </edge>
    <edge id=":2609993870_1" function="internal">
        <lane id=":2609993870_1_0" index="0" disallow="tram rail_urban rail rail_electric rail_fast ship container cable_car subway aircraft wheelchair scooter drone" speed="13.89" length="15.91" shape="278.40,231.71 273.67,231.86 270.45,232.30 267.22,232.74 262.50,232.82"/>
        <lane id=":2609993870_1_1" index="1" disallow="tram rail_urban rail rail_electric rail_fast ship container cable_car subway aircraft wheelchair scooter drone" speed="13.89" length="15.91" shape="278.46,228.51 273.75,228.66 270.53,229.11 267.31,229.54 262.60,229.63"/>
        <lane id=":2609993870_1_2" index="2" disallow="tram rail_urban rail rail_electric rail_fast ship container cable_car subway aircraft wheelchair scooter drone" speed="13.89" length="15.91" shape="278.53,225.31 273.82,225.46 270.61,225.91 267.40,226.34 262.70,226.43"/>
        <lane id=":2609993870_1_3" index="3" disallow="tram rail_urban rail rail_electric rail_fast ship container cable_car subway aircraft wheelchair scooter drone" speed="13.89" length="15.91" shape="278.59,222.11 273.90,222.26 270.69,222.71 267.49,223.14 262.80,223.23"/>
    </edge>
    <edge id=":2609993922_0" function="internal">
        <lane id=":2609993922_0_0" index="0" allow="pedestrian delivery bicycle" speed="5.56" length="7.74" shape="34.75,287.65 32.65,287.29 31.18,286.35 30.32,284.82 30.08,282.72"/>
    </edge>
    <edge id=":2609993922_1" function="internal">
        <lane id=":2609993922_1_0" index="0" allow="pedestrian delivery bicycle" speed="3.90" length="2.58" shape="33.28,282.80 33.36,283.51 33.65,284.02 34.14,284.33 34.83,284.45"/>
    </edge>
    <edge id=":2651471839_0" function="internal">
        <lane id=":2651471839_0_0" index="0" allow="pedestrian delivery bicycle" speed="8.33" length="4.09" shape="382.94,275.24 381.73,275.36 380.89,275.48 380.11,275.75 379.05,276.31"/>
    </edge>
    <edge id=":2651471839_1" function="internal">
        <lane id=":2651471839_1_0" index="0" disallow="tram rail_urban rail rail_electric rail_fast ship container cable_car subway aircraft wheelchair scooter drone" speed="11.11" length="5.83" shape="382.42,270.56 380.84,271.22 379.84,271.86 378.89,272.60 377.44,273.54"/>
    </edge>
    <edge id=":284056480_0" function="internal">
        <lane id=":284056480_0_0" index="0" disallow="tram rail_urban rail rail_electric rail_fast ship container cable_car subway aircraft wheelchair scooter drone" speed="18.05" length="4.84" shape="86.84,224.73 82.03,224.17"/>
    </edge>
    <edge id=":284056480_1" function="internal">
        <lane id=":284056480_1_0" index="0" disallow="tram rail_urban rail rail_electric rail_fast ship container cable_car subway aircraft wheelchair scooter drone" speed="13.89" length="4.50" shape="87.10,221.54 85.72,221.42 84.78,221.29 83.84,221.13 82.48,220.87"/>
        <lane id=":284056480_1_1" index="1" disallow="tram rail_urban rail rail_electric rail_fast ship container cable_car subway aircraft wheelchair scooter drone" speed="13.89" length="4.50" shape="87.35,218.35 86.07,218.24 85.20,218.12 84.33,217.96 83.07,217.72"/>
    </edge>
    <edge id=":3198040492_0" function="internal">
        <lane id=":3198040492_0_0" index="0" disallow="tram rail_urban rail rail_electric rail_fast ship container cable_car subway aircraft wheelchair scooter drone" speed="3.65" length="4.67" shape="127.48,0.54 127.83,-0.86 128.45,-1.51 129.34,-1.40 130.50,-0.54"/>
    </edge>
    <edge id=":3417539293_0" function="internal">
        <lane id=":3417539293_0_0" index="0" disallow="tram rail_urban rail rail_electric rail_fast ship container cable_car subway aircraft wheelchair scooter drone" speed="13.89" length="8.20" shape="414.67,236.00 412.28,236.18 410.68,236.68 409.07,237.20 406.69,237.40"/>
        <lane id=":3417539293_0_1" index="1" disallow="tram rail_urban rail rail_electric rail_fast ship container cable_car subway aircraft wheelchair scooter drone" speed="13.89" length="8.20" shape="414.67,236.00 412.29,235.68 410.71,235.08 409.13,234.50 406.75,234.20"/>
        <lane id=":3417539293_0_2" index="2" disallow="tram rail_urban rail rail_electric rail_fast ship container cable_car subway aircraft wheelchair scooter drone" speed="13.89" length="8.20" shape="414.76,232.80 412.37,232.48 410.79,231.88 409.20,231.30 406.81,231.00"/>
        <lane id=":3417539293_0_3" index="3" disallow="tram rail_urban rail rail_electric rail_fast ship container cable_car subway aircraft wheelchair scooter drone" speed="13.89" length="8.20" shape="414.85,229.60 412.46,229.28 410.86,228.69 409.27,228.10 406.88,227.80"/>
        <lane id=":3417539293_0_4" index="4" disallow="tram rail_urban rail rail_electric rail_fast ship container cable_car subway aircraft wheelchair scooter drone" speed="13.89" length="8.20" shape="414.95,226.40 412.54,226.08 410.94,225.49 409.34,224.90 406.94,224.60"/>
    </edge>
    <edge id=":4040326908_0" function="internal">
        <lane id=":4040326908_0_0" index="0" allow="pedestrian delivery bicycle" speed="4.76" length="5.95" shape="414.80,266.80 413.11,267.01 412.19,267.73 412.03,268.96 412.65,270.69"/>
    </edge>
    <edge id=":4040326908_1" function="internal">
        <lane id=":4040326908_1_0" index="0" disallow="tram rail_urban rail rail_electric rail_fast ship container cable_car subway aircraft wheelchair scooter drone" speed="11.11" length="10.25" shape="414.80,266.80 404.56,266.64"/>
    </edge>
    <edge id=":4040326908_2" function="internal">
        <lane id=":4040326908_2_0" index="0" allow="pedestrian delivery bicycle" speed="5.56" length="10.27" shape="406.02,263.10 408.50,264.82 410.05,266.26 411.25,268.01 412.65,270.69"/>
    </edge>
    <edge id=":4040326908_3" function="internal">
        <lane id=":4040326908_3_0" index="0" allow="pedestrian delivery bicycle" speed="4.77" length="7.70" shape="406.02,263.10 407.98,264.68 408.38,265.80 407.24,266.45 404.56,266.64"/>
    </edge>
    <edge id=":4040326911_0" function="internal">
        <lane id=":4040326911_0_0" index="0" disallow="tram rail_urban rail rail_electric rail_fast ship container cable_car subway aircraft wheelchair scooter drone" speed="11.11" length="9.53" shape="362.44,267.80 364.71,266.12 366.31,265.02 367.99,264.05 370.50,262.75"/>
    </edge>
    <edge id=":4040326911_1" function="internal">
        <lane id=":4040326911_1_0" index="0" allow="pedestrian delivery bicycle" speed="8.33" length="4.05" shape="364.36,270.37 365.34,269.69 366.08,269.33 366.87,269.10 368.04,268.81"/>
    </edge>
    <edge id=":4040326918_0" function="internal">
        <lane id=":4040326918_0_0" index="0" allow="pedestrian delivery bicycle" speed="6.00" length="8.00" shape="322.67,304.55 322.22,303.06 322.73,301.58 324.18,300.11 326.58,298.65"/>
    </edge>
    <edge id=":4040326918_1" function="internal">
        <lane id=":4040326918_1_0" index="0" allow="pedestrian delivery bicycle" speed="3.65" length="4.67" shape="322.67,304.55 322.72,303.11 323.19,302.35 324.08,302.27 325.39,302.87"/>
    </edge>
    <edge id=":4040326918_2" function="internal">
        <lane id=":4040326918_2_0" index="0" disallow="tram rail_urban rail rail_electric rail_fast ship container cable_car subway aircraft wheelchair scooter drone" speed="11.11" length="9.01" shape="317.08,299.24 319.54,298.39 321.20,297.74 322.81,296.97 325.14,295.79"/>
        <lane id=":4040326918_2_1" index="1" disallow="tram rail_urban rail rail_electric rail_fast ship container cable_car subway aircraft wheelchair scooter drone" speed="11.11" length="9.01" shape="318.10,302.27 320.69,301.38 322.44,300.69 324.14,299.89 326.58,298.65"/>
    </edge>
    <edge id=":4040326918_4" function="internal">
        <lane id=":4040326918_4_0" index="0" allow="pedestrian delivery bicycle" speed="6.65" length="7.84" shape="318.10,302.27 320.71,301.59 322.79,301.46 324.35,301.89 325.39,302.87"/>
    </edge>
    <edge id=":4444815320_0" function="internal">
        <lane id=":4444815320_0_0" index="0" allow="pedestrian delivery bicycle" speed="5.05" length="5.02" shape="102.89,185.11 103.04,186.48 103.59,187.48 104.54,188.10 105.89,188.34"/>
        <lane id=":4444815320_0_1" index="1" allow="pedestrian delivery bicycle" speed="6.09" length="7.78" shape="102.89,185.11 103.00,187.88 103.51,189.88 104.44,191.10 105.78,191.54"/>
    </edge>
    <edge id=":4444815320_2" function="internal">
        <lane id=":4444815320_2_0" index="0" allow="pedestrian delivery bicycle" speed="3.65" length="4.67" shape="102.89,185.11 102.06,186.28 101.24,186.66 100.46,186.23 99.70,185.01"/>
    </edge>
    <edge id=":4444815320_3" function="internal">
        <lane id=":4444815320_3_0" index="0" allow="pedestrian delivery bicycle" speed="5.03" length="5.01" shape="96.49,187.99 97.85,187.85 98.84,187.31 99.46,186.36 99.70,185.01"/>
    </edge>
    <edge id=":4444815320_4" function="internal">
        <lane id=":4444815320_4_0" index="0" disallow="tram rail_urban rail rail_electric rail_fast ship container cable_car subway aircraft wheelchair scooter drone" speed="13.89" length="9.45" shape="96.49,187.99 105.89,188.34"/>
        <lane id=":4444815320_4_1" index="1" disallow="tram rail_urban rail rail_electric rail_fast ship container cable_car subway aircraft wheelchair scooter drone" speed="13.89" length="9.45" shape="96.36,191.19 105.78,191.54"/>
        <lane id=":4444815320_4_2" index="2" disallow="tram rail_urban rail rail_electric rail_fast ship container cable_car subway aircraft wheelchair scooter drone" speed="13.89" length="9.45" shape="96.23,194.39 105.68,194.74"/>
        <lane id=":4444815320_4_3" index="3" disallow="tram rail_urban rail rail_electric rail_fast ship container cable_car subway aircraft wheelchair scooter drone" speed="13.89" length="9.45" shape="96.10,197.59 105.57,197.93"/>
        <lane id=":4444815320_4_4" index="4" disallow="tram rail_urban rail rail_electric rail_fast ship container cable_car subway aircraft wheelchair scooter drone" speed="13.89" length="9.45" shape="95.97,200.78 105.46,201.13"/>
    </edge>
    <edge id=":4579256491_0" function="internal">
        <lane id=":4579256491_0_0" index="0" allow="pedestrian delivery bicycle" speed="5.56" length="9.40" shape="420.50,315.71 420.16,325.10"/>
    </edge>
    <edge id=":4579256491_1" function="internal">
        <lane id=":4579256491_1_0" index="0" allow="pedestrian delivery bicycle" speed="5.56" length="10.21" shape="420.50,315.71 420.00,318.46 418.74,320.39 416.72,321.49 413.93,321.76"/>
    </edge>
    <edge id=":4579256491_2" function="internal">