<?xml version="1.0" encoding="UTF-8"?>

<!-- generated on 2025-01-01 19:28:44 by Eclipse SUMO netedit Version 1.21.0
<neteditConfiguration xmlns:xsi="http://www.w3.org/2001/XMLSchema-instance" xsi:noNamespaceSchemaLocation="http://sumo.dlr.de/xsd/neteditConfiguration.xsd">

    <input>
        <sumocfg-file value="C:\Users\krist\Sumo\2025-01-01-15-09-43\osm.sumocfg"/>
        <additional-files value="C:\Users\krist\Sumo\2025-01-01-15-09-43\osm.poly.xml.gz"/>
        <route-files value="C:\Users\krist\Sumo\2025-01-01-15-09-43\osm.passenger.trips.xml"/>
        <sumo-net-file value="C:\Users\krist\sumo\mcmaster.net.xml"/>
    </input>

    <output>
        <output-file value="C:\Users\krist\sumo\mcmaster.net.xml"/>
        <output.street-names value="true"/>
    </output>

    <processing>
        <geometry.min-radius.fix.railways value="false"/>
        <geometry.max-grade.fix value="false"/>
        <offset.disable-normalization value="true"/>
        <lefthand value="0"/>
    </processing>

    <junctions>
        <no-turnarounds value="true"/>
        <junctions.corner-detail value="5"/>
        <junctions.limit-turn-speed value="5.50"/>
        <rectangular-lane-cut value="0"/>
    </junctions>

    <pedestrian>
        <walkingareas value="0"/>
    </pedestrian>

    <netedit>
        <ignore.routeelements value="false"/>
    </netedit>

</neteditConfiguration>
-->

<net version="1.20" junctionCornerDetail="5" limitTurnSpeed="5.50" xmlns:xsi="http://www.w3.org/2001/XMLSchema-instance" xsi:noNamespaceSchemaLocation="http://sumo.dlr.de/xsd/net_file.xsd">

    <location netOffset="-587572.36,-4789880.21" convBoundary="0.00,0.00,297.28,290.91" origBoundary="-79.921087,43.256633,-79.917402,43.259248" projParameter="+proj=utm +zone=17 +ellps=WGS84 +datum=WGS84 +units=m +no_defs"/>

    <type id="highway.cycleway" priority="1" numLanes="1" speed="5.56" allow="bicycle" oneway="0" width="2.00"/>
    <type id="highway.footway" priority="1" numLanes="1" speed="2.78" allow="pedestrian" oneway="1" width="2.00"/>
    <type id="highway.path" priority="1" numLanes="1" speed="5.56" allow="pedestrian bicycle" oneway="0" width="2.00"/>
    <type id="highway.pedestrian" priority="1" numLanes="1" speed="2.78" allow="pedestrian" oneway="1" width="2.00"/>
    <type id="highway.primary" priority="12" numLanes="2" speed="27.78" disallow="tram rail_urban rail rail_electric rail_fast ship container cable_car subway aircraft wheelchair scooter drone" oneway="0"/>
    <type id="highway.primary_link" priority="7" numLanes="1" speed="22.22" disallow="tram rail_urban rail rail_electric rail_fast ship container cable_car subway aircraft wheelchair scooter drone" oneway="0"/>
    <type id="highway.residential" priority="3" numLanes="1" speed="13.89" disallow="tram rail_urban rail rail_electric rail_fast ship container cable_car subway aircraft wheelchair scooter drone" oneway="0"/>
    <type id="highway.service" priority="1" numLanes="1" speed="5.56" allow="pedestrian delivery bicycle" oneway="0"/>
    <type id="highway.steps" priority="1" numLanes="1" speed="1.39" allow="pedestrian" oneway="1" width="2.00"/>
    <type id="highway.tertiary" priority="10" numLanes="1" speed="22.22" disallow="tram rail_urban rail rail_electric rail_fast ship container cable_car subway aircraft wheelchair scooter drone" oneway="0"/>
    <type id="highway.unclassified" priority="4" numLanes="1" speed="13.89" disallow="tram rail_urban rail rail_electric rail_fast ship container cable_car subway aircraft wheelchair scooter drone" oneway="0"/>

    <edge id=":11285336002_0" function="internal">
        <lane id=":11285336002_0_0" index="0" allow="bicycle" speed="4.63" length="4.01" width="2.00" shape="123.76,144.42 122.61,144.53 121.78,144.95 121.26,145.66 121.05,146.68"/>
    </edge>
    <edge id=":11285336002_1" function="internal">
        <lane id=":11285336002_1_0" index="0" disallow="tram rail_urban rail rail_electric rail_fast ship container cable_car subway aircraft wheelchair scooter drone" speed="13.89" length="7.11" shape="123.78,143.83 116.67,143.59"/>
        <lane id=":11285336002_1_1" index="1" disallow="tram rail_urban rail rail_electric rail_fast ship container cable_car subway aircraft wheelchair scooter drone" speed="13.89" length="7.11" shape="123.88,140.63 116.78,140.39"/>
        <lane id=":11285336002_1_2" index="2" disallow="tram rail_urban rail rail_electric rail_fast ship container cable_car subway aircraft wheelchair scooter drone" speed="13.89" length="7.11" shape="123.99,137.43 116.89,137.19"/>
    </edge>
    <edge id=":11285336002_4" function="internal">
        <lane id=":11285336002_4_0" index="0" allow="bicycle" speed="5.33" length="5.75" width="2.00" shape="124.01,136.83 122.04,136.61 120.66,136.08 119.85,135.27 119.61,134.15"/>
    </edge>
    <edge id=":11285336002_5" function="internal">
        <lane id=":11285336002_5_0" index="0" allow="bicycle" speed="5.56" length="12.46" width="2.00" shape="121.61,134.24 121.05,146.68"/>
    </edge>
    <edge id=":11285336002_6" function="internal">
        <lane id=":11285336002_6_0" index="0" allow="bicycle" speed="5.59" length="2.82" width="2.00" shape="121.61,134.24 121.25,135.85 120.52,136.76"/>
    </edge>
    <edge id=":11285336002_7" function="internal">
        <lane id=":11285336002_7_0" index="0" allow="bicycle" speed="2.89" length="1.27" width="2.00" shape="121.61,134.24 121.08,134.96 120.74,135.11"/>
    </edge>
    <edge id=":11285336002_11" function="internal">
        <lane id=":11285336002_11_0" index="0" allow="bicycle" speed="5.59" length="3.91" width="2.00" shape="120.52,136.76 120.34,136.98 118.88,137.63 116.87,137.79"/>
    </edge>
    <edge id=":11285336002_12" function="internal">
        <lane id=":11285336002_12_0" index="0" allow="bicycle" speed="2.89" length="1.65" width="2.00" shape="120.74,135.11 120.57,135.19 120.08,134.92 119.61,134.15"/>
    </edge>
    <edge id=":11285336002_8" function="internal">
        <lane id=":11285336002_8_0" index="0" allow="bicycle" speed="4.35" length="3.88" width="2.00" shape="119.05,146.59 118.94,145.57 118.50,144.83 117.74,144.37 116.64,144.19"/>
    </edge>
    <edge id=":11285336002_9" function="internal">
        <lane id=":11285336002_9_0" index="0" allow="bicycle" speed="5.56" length="12.45" width="2.00" shape="119.05,146.59 119.61,134.15"/>
    </edge>
    <edge id=":11285336002_10" function="internal">
        <lane id=":11285336002_10_0" index="0" allow="bicycle" speed="2.89" length="1.27" width="2.00" shape="119.05,146.59 119.58,145.86 119.92,145.71"/>
    </edge>
    <edge id=":11285336002_13" function="internal">
        <lane id=":11285336002_13_0" index="0" allow="bicycle" speed="2.89" length="1.65" width="2.00" shape="119.92,145.71 120.09,145.64 120.58,145.91 121.05,146.68"/>
    </edge>
    <edge id=":11285336003_0" function="internal">
        <lane id=":11285336003_0_0" index="0" allow="bicycle" speed="3.86" length="2.78" width="2.00" shape="84.78,4.68 84.59,3.90 84.42,3.12 84.12,2.58 83.57,2.48"/>
    </edge>
    <edge id=":11285336003_1" function="internal">
        <lane id=":11285336003_1_0" index="0" allow="bicycle" speed="5.56" length="6.62" width="2.00" shape="82.71,-0.60 83.79,-0.54 84.81,0.25 85.77,1.78 86.68,4.05"/>
    </edge>
    <edge id=":11285336003_2" function="internal">
        <lane id=":11285336003_2_0" index="0" allow="pedestrian delivery bicycle" speed="3.65" length="2.34" shape="82.55,-1.18 83.92,-0.73 84.52,-0.07"/>
    </edge>
    <edge id=":11285336003_3" function="internal">
        <lane id=":11285336003_3_0" index="0" allow="pedestrian delivery bicycle" speed="3.65" length="2.34" shape="84.52,-0.07 84.35,0.81 83.41,1.90"/>
    </edge>
    <edge id=":11285336005_0" function="internal">
        <lane id=":11285336005_0_0" index="0" allow="bicycle" speed="2.89" length="2.92" width="2.00" shape="101.88,151.17 101.15,150.64 100.93,150.13 101.20,149.64 101.97,149.18"/>
    </edge>
    <edge id=":11889986055_0" function="internal">
        <lane id=":11889986055_0_0" index="0" allow="pedestrian bicycle" speed="2.89" length="2.92" width="2.00" shape="67.27,253.91 68.12,253.63 68.67,253.75 68.91,254.25 68.83,255.15"/>
    </edge>
    <edge id=":11889986058_0" function="internal">
        <lane id=":11889986058_0_0" index="0" allow="pedestrian bicycle" speed="2.89" length="2.92" width="2.00" shape="53.32,274.76 52.47,275.04 51.92,274.92 51.68,274.42 51.76,273.52"/>
    </edge>
    <edge id=":11948212139_0" function="internal">
        <lane id=":11948212139_0_0" index="0" allow="pedestrian delivery bicycle" speed="3.71" length="2.22" shape="96.79,23.53 96.50,22.89 96.14,22.48 95.71,22.31 95.20,22.37"/>
    </edge>
    <edge id=":11948212139_1" function="internal">
        <lane id=":11948212139_1_0" index="0" disallow="tram rail_urban rail rail_electric rail_fast ship container cable_car subway aircraft wheelchair scooter drone" speed="3.65" length="4.67" shape="96.79,23.53 97.17,22.14 97.80,21.51 98.69,21.63 99.83,22.52"/>
    </edge>
    <edge id=":11948212139_2" function="internal">
        <lane id=":11948212139_2_0" index="0" allow="pedestrian delivery bicycle" speed="5.95" length="7.35" shape="94.22,19.33 96.11,19.03 97.68,19.46 98.91,20.63 99.83,22.52"/>
    </edge>
    <edge id=":12094291683_0" function="internal">
        <lane id=":12094291683_0_0" index="0" allow="pedestrian delivery bicycle" speed="5.56" length="6.22" shape="207.94,76.11 201.78,76.92"/>
    </edge>
    <edge id=":12094291683_1" function="internal">
        <lane id=":12094291683_1_0" index="0" allow="pedestrian delivery bicycle" speed="3.65" length="1.44" shape="207.94,76.11 206.65,75.47"/>
    </edge>
    <edge id=":12094291683_4" function="internal">
        <lane id=":12094291683_4_0" index="0" allow="pedestrian delivery bicycle" speed="3.65" length="3.23" shape="206.65,75.47 206.15,74.73 206.44,73.89 207.52,72.94"/>
    </edge>
    <edge id=":12094291683_2" function="internal">
        <lane id=":12094291683_2_0" index="0" allow="pedestrian delivery bicycle" speed="5.56" length="6.22" shape="201.36,73.75 207.52,72.94"/>
    </edge>
    <edge id=":12094291683_3" function="internal">
        <lane id=":12094291683_3_0" index="0" allow="pedestrian delivery bicycle" speed="3.65" length="1.44" shape="201.36,73.75 202.65,74.39"/>
    </edge>
    <edge id=":12094291683_5" function="internal">
        <lane id=":12094291683_5_0" index="0" allow="pedestrian delivery bicycle" speed="3.65" length="3.23" shape="202.65,74.39 203.15,75.13 202.86,75.97 201.78,76.92"/>
    </edge>
    <edge id=":1685278635_0" function="internal">
        <lane id=":1685278635_0_0" index="0" disallow="tram rail_urban rail rail_electric rail_fast ship container cable_car subway aircraft wheelchair scooter drone" speed="8.47" length="11.63" shape="132.15,151.53 130.72,148.23 128.94,145.85 126.84,144.39 124.39,143.85"/>
    </edge>
    <edge id=":1685278635_1" function="internal">
        <lane id=":1685278635_1_0" index="0" disallow="tram rail_urban rail rail_electric rail_fast ship container cable_car subway aircraft wheelchair scooter drone" speed="11.11" length="19.84" shape="132.15,151.53 130.76,145.85 130.56,141.78 130.38,137.70 129.03,132.01"/>
        <lane id=":1685278635_1_1" index="1" disallow="tram rail_urban rail rail_electric rail_fast ship container cable_car subway aircraft wheelchair scooter drone" speed="11.11" length="19.84" shape="135.18,150.50 133.80,144.83 133.60,140.76 133.41,136.70 132.07,131.01"/>
    </edge>
    <edge id=":1685278635_3" function="internal">
        <lane id=":1685278635_3_0" index="0" disallow="tram rail_urban rail rail_electric rail_fast ship container cable_car subway aircraft wheelchair scooter drone" speed="3.65" length="1.44" shape="138.22,149.48 138.59,148.08"/>
    </edge>
    <edge id=":1685278635_11" function="internal">
        <lane id=":1685278635_11_0" index="0" disallow="tram rail_urban rail rail_electric rail_fast ship container cable_car subway aircraft wheelchair scooter drone" speed="3.65" length="3.23" shape="138.59,148.08 139.22,147.45 140.10,147.57 141.25,148.45"/>
    </edge>
    <edge id=":1685278635_4" function="internal">
        <lane id=":1685278635_4_0" index="0" disallow="tram rail_urban rail rail_electric rail_fast ship container cable_car subway aircraft wheelchair scooter drone" speed="13.89" length="25.85" shape="150.13,146.29 124.39,143.85"/>
        <lane id=":1685278635_4_1" index="1" disallow="tram rail_urban rail rail_electric rail_fast ship container cable_car subway aircraft wheelchair scooter drone" speed="13.89" length="25.85" shape="150.23,143.09 124.50,140.65"/>
        <lane id=":1685278635_4_2" index="2" disallow="tram rail_urban rail rail_electric rail_fast ship container cable_car subway aircraft wheelchair scooter drone" speed="13.89" length="25.85" shape="150.34,139.89 124.60,137.45"/>
    </edge>
    <edge id=":1685278635_7" function="internal">
        <lane id=":1685278635_7_0" index="0" disallow="tram rail_urban rail rail_electric rail_fast ship container cable_car subway aircraft wheelchair scooter drone" speed="10.91" length="20.00" shape="150.44,136.69 143.04,136.13 137.51,135.00 133.85,133.29 132.07,131.01"/>
    </edge>
    <edge id=":1685278635_8" function="internal">
        <lane id=":1685278635_8_0" index="0" disallow="tram rail_urban rail rail_electric rail_fast ship container cable_car subway aircraft wheelchair scooter drone" speed="11.11" length="19.42" shape="138.15,129.01 144.28,147.43"/>
        <lane id=":1685278635_8_1" index="1" disallow="tram rail_urban rail rail_electric rail_fast ship container cable_car subway aircraft wheelchair scooter drone" speed="11.11" length="19.42" shape="135.11,130.01 141.25,148.45"/>
    </edge>
    <edge id=":1685278635_10" function="internal">
        <lane id=":1685278635_10_0" index="0" disallow="tram rail_urban rail rail_electric rail_fast ship container cable_car subway aircraft wheelchair scooter drone" speed="3.65" length="1.44" shape="135.11,130.01 134.73,131.40"/>
    </edge>
    <edge id=":1685278635_12" function="internal">
        <lane id=":1685278635_12_0" index="0" disallow="tram rail_urban rail rail_electric rail_fast ship container cable_car subway aircraft wheelchair scooter drone" speed="3.65" length="3.23" shape="134.73,131.40 134.09,132.03 133.21,131.90 132.07,131.01"/>
    </edge>
    <edge id=":1942234323_0" function="internal">
        <lane id=":1942234323_0_0" index="0" disallow="tram rail_urban rail rail_electric rail_fast ship container cable_car subway aircraft wheelchair scooter drone" speed="11.11" length="12.94" shape="150.94,189.83 148.22,187.02 146.71,184.79 145.43,182.37 143.40,178.97"/>
        <lane id=":1942234323_0_1" index="1" disallow="tram rail_urban rail rail_electric rail_fast ship container cable_car subway aircraft wheelchair scooter drone" speed="11.11" length="12.94" shape="153.11,187.48 150.48,184.74 149.04,182.56 147.81,180.19 145.85,176.88"/>
        <lane id=":1942234323_0_2" index="2" disallow="tram rail_urban rail rail_electric rail_fast ship container cable_car subway aircraft wheelchair scooter drone" speed="11.11" length="12.94" shape="155.28,185.13 152.64,182.51 151.11,180.47 149.92,178.16 148.34,174.77"/>
    </edge>
    <edge id=":1942234323_3" function="internal">
        <lane id=":1942234323_3_0" index="0" disallow="tram rail_urban rail rail_electric rail_fast ship container cable_car subway aircraft wheelchair scooter drone" speed="3.65" length="1.44" shape="155.28,185.13 154.94,183.72"/>
    </edge>
    <edge id=":1942234323_8" function="internal">
        <lane id=":1942234323_8_0" index="0" disallow="tram rail_urban rail rail_electric rail_fast ship container cable_car subway aircraft wheelchair scooter drone" speed="3.65" length="3.23" shape="154.94,183.72 155.19,182.87 156.02,182.55 157.45,182.77"/>
    </edge>
    <edge id=":1942234323_4" function="internal">
        <lane id=":1942234323_4_0" index="0" disallow="tram rail_urban rail rail_electric rail_fast ship container cable_car subway aircraft wheelchair scooter drone" speed="12.85" length="12.26" shape="156.65,169.01 156.81,172.31 156.78,175.07 157.43,177.65 159.62,180.42"/>
    </edge>
    <edge id=":1942234323_5" function="internal">
        <lane id=":1942234323_5_0" index="0" disallow="tram rail_urban rail rail_electric rail_fast ship container cable_car subway aircraft wheelchair scooter drone" speed="11.11" length="12.06" shape="153.37,170.48 154.82,173.71 155.84,175.94 157.18,177.93 159.62,180.42"/>
        <lane id=":1942234323_5_1" index="1" disallow="tram rail_urban rail rail_electric rail_fast ship container cable_car subway aircraft wheelchair scooter drone" speed="11.11" length="12.06" shape="150.86,172.63 152.37,175.93 153.47,178.20 154.91,180.22 157.45,182.77"/>
    </edge>
    <edge id=":1942234323_7" function="internal">
        <lane id=":1942234323_7_0" index="0" disallow="tram rail_urban rail rail_electric rail_fast ship container cable_car subway aircraft wheelchair scooter drone" speed="3.69" length="1.65" shape="150.86,172.63 151.03,174.11 150.97,174.26"/>
    </edge>
    <edge id=":1942234323_9" function="internal">
        <lane id=":1942234323_9_0" index="0" disallow="tram rail_urban rail rail_electric rail_fast ship container cable_car subway aircraft wheelchair scooter drone" speed="3.69" length="3.17" shape="150.97,174.26 150.67,174.96 149.77,175.18 148.34,174.77"/>
    </edge>
    <edge id=":2609993870_0" function="internal">
        <lane id=":2609993870_0_0" index="0" disallow="tram rail_urban rail rail_electric rail_fast ship container cable_car subway aircraft wheelchair scooter drone" speed="18.05" length="3.73" shape="189.41,151.18 185.69,150.93"/>
    </edge>
    <edge id=":2609993870_1" function="internal">
        <lane id=":2609993870_1_0" index="0" disallow="tram rail_urban rail rail_electric rail_fast ship container cable_car subway aircraft wheelchair scooter drone" speed="13.89" length="3.26" shape="189.51,147.98 185.97,147.84"/>
        <lane id=":2609993870_1_1" index="1" disallow="tram rail_urban rail rail_electric rail_fast ship container cable_car subway aircraft wheelchair scooter drone" speed="13.89" length="3.26" shape="189.62,144.78 186.27,144.65"/>
        <lane id=":2609993870_1_2" index="2" disallow="tram rail_urban rail rail_electric rail_fast ship container cable_car subway aircraft wheelchair scooter drone" speed="13.89" length="3.26" shape="189.72,141.58 186.56,141.46"/>
        <lane id=":2609993870_1_3" index="3" disallow="tram rail_urban rail rail_electric rail_fast ship container cable_car subway aircraft wheelchair scooter drone" speed="13.89" length="3.26" shape="189.82,138.39 186.85,138.27"/>
    </edge>
    <edge id=":2609993875_0" function="internal">
        <lane id=":2609993875_0_0" index="0" disallow="tram rail_urban rail rail_electric rail_fast ship container cable_car subway aircraft wheelchair scooter drone" speed="11.11" length="6.80" shape="134.62,158.21 132.22,151.71"/>
        <lane id=":2609993875_0_1" index="1" disallow="tram rail_urban rail rail_electric rail_fast ship container cable_car subway aircraft wheelchair scooter drone" speed="11.11" length="6.80" shape="137.62,157.07 135.25,150.69"/>
        <lane id=":2609993875_0_2" index="2" disallow="tram rail_urban rail rail_electric rail_fast ship container cable_car subway aircraft wheelchair scooter drone" speed="11.11" length="6.80" shape="140.61,155.93 138.28,149.67"/>
    </edge>
    <edge id=":2609993875_3" function="internal">
        <lane id=":2609993875_3_0" index="0" disallow="tram rail_urban rail rail_electric rail_fast ship container cable_car subway aircraft wheelchair scooter drone" speed="11.11" length="6.50" shape="144.34,147.62 146.59,153.66"/>
        <lane id=":2609993875_3_1" index="1" disallow="tram rail_urban rail rail_electric rail_fast ship container cable_car subway aircraft wheelchair scooter drone" speed="11.11" length="6.50" shape="141.31,148.64 143.60,154.79"/>
    </edge>
    <edge id=":2609993880_0" function="internal">
        <lane id=":2609993880_0_0" index="0" disallow="tram rail_urban rail rail_electric rail_fast ship container cable_car subway aircraft wheelchair scooter drone" speed="22.22" length="5.40" shape="161.19,153.74 160.19,154.99 159.56,155.89 159.01,156.84 158.27,158.27"/>
    </edge>
    <edge id=":2609993913_0" function="internal">
        <lane id=":2609993913_0_0" index="0" allow="pedestrian delivery bicycle" speed="5.56" length="5.00" shape="28.37,173.65 27.92,178.63"/>
    </edge>
    <edge id=":2609993913_1" function="internal">
        <lane id=":2609993913_1_0" index="0" allow="pedestrian delivery bicycle" speed="3.65" length="4.67" shape="28.37,173.65 27.47,174.77 26.63,175.10 25.87,174.63 25.19,173.36"/>
    </edge>
    <edge id=":2609993913_2" function="internal">
        <lane id=":2609993913_2_0" index="0" allow="pedestrian delivery bicycle" speed="5.56" length="5.00" shape="24.73,178.34 25.19,173.36"/>
    </edge>
    <edge id=":2609993913_3" function="internal">
        <lane id=":2609993913_3_0" index="0" allow="pedestrian delivery bicycle" speed="3.65" length="4.67" shape="24.73,178.34 25.64,177.21 26.47,176.89 27.23,177.36 27.92,178.63"/>
    </edge>
    <edge id=":2609993922_0" function="internal">
        <lane id=":2609993922_0_0" index="0" allow="pedestrian delivery bicycle" speed="5.56" length="5.82" shape="13.28,184.38 11.48,184.55 10.04,184.99 8.95,185.69 8.22,186.66"/>
    </edge>
    <edge id=":2609993922_1" function="internal">
        <lane id=":2609993922_1_0" index="0" allow="pedestrian delivery bicycle" speed="5.56" length="10.49" shape="13.28,184.38 10.40,184.03 8.39,182.83 7.24,180.78 6.96,177.90"/>
    </edge>
    <edge id=":2609993922_2" function="internal">
        <lane id=":2609993922_2_0" index="0" allow="pedestrian delivery bicycle" speed="3.65" length="4.67" shape="13.28,184.38 12.06,183.61 11.65,182.81 12.03,182.01 13.21,181.18"/>
    </edge>
    <edge id=":2609993922_3" function="internal">
        <lane id=":2609993922_3_0" index="0" allow="pedestrian delivery bicycle" speed="4.97" length="5.08" shape="10.15,178.04 10.29,179.44 10.84,180.43 11.82,181.01 13.21,181.18"/>
    </edge>
    <edge id=":2609993922_4" function="internal">
        <lane id=":2609993922_4_0" index="0" allow="pedestrian delivery bicycle" speed="5.56" length="8.96" shape="10.15,178.04 10.04,180.70 9.85,182.53 9.33,184.27 8.22,186.66"/>
    </edge>
    <edge id=":2609993922_5" function="internal">
        <lane id=":2609993922_5_0" index="0" allow="pedestrian delivery bicycle" speed="3.65" length="4.67" shape="10.15,178.04 9.30,179.20 8.48,179.57 7.70,179.13 6.96,177.90"/>
    </edge>
    <edge id=":2609993922_6" function="internal">
        <lane id=":2609993922_6_0" index="0" allow="pedestrian delivery bicycle" speed="5.56" length="7.60" shape="5.36,185.23 6.30,183.19 6.73,181.71 6.87,180.15 6.96,177.90"/>
    </edge>
    <edge id=":2609993922_7" function="internal">
        <lane id=":2609993922_7_0" index="0" allow="pedestrian delivery bicycle" speed="5.56" length="9.29" shape="5.36,185.23 6.59,183.50 8.31,182.25 10.52,181.48 13.21,181.18"/>
    </edge>
    <edge id=":2609993922_8" function="internal">
        <lane id=":2609993922_8_0" index="0" allow="pedestrian delivery bicycle" speed="3.65" length="4.67" shape="5.36,185.23 6.61,184.51 7.51,184.51 8.04,185.23 8.22,186.66"/>
    </edge>
    <edge id=":2609993930_0" function="internal">
        <lane id=":2609993930_0_0" index="0" allow="pedestrian delivery bicycle" speed="3.65" length="4.67" shape="4.99,193.09 3.74,193.80 2.84,193.80 2.31,193.08 2.13,191.65"/>
    </edge>
    <edge id=":2651471839_0" function="internal">
        <lane id=":2651471839_0_0" index="0" allow="pedestrian delivery bicycle" speed="8.33" length="4.11" shape="266.42,177.81 265.24,178.12 264.41,178.29 263.62,178.54 262.53,179.08"/>
    </edge>
    <edge id=":2651471839_1" function="internal">
        <lane id=":2651471839_1_0" index="0" disallow="tram rail_urban rail rail_electric rail_fast ship container cable_car subway aircraft wheelchair scooter drone" speed="11.11" length="3.64" shape="264.27,174.80 263.25,175.15 262.56,175.42 261.91,175.76 260.97,176.29"/>
    </edge>
    <edge id=":284056480_0" function="internal">
        <lane id=":284056480_0_0" index="0" disallow="tram rail_urban rail rail_electric rail_fast ship container cable_car subway aircraft wheelchair scooter drone" speed="18.05" length="3.07" shape="60.69,142.15 59.79,142.06 59.17,141.96 58.56,141.82 57.68,141.60"/>
    </edge>
    <edge id=":284056480_1" function="internal">
        <lane id=":284056480_1_0" index="0" disallow="tram rail_urban rail rail_electric rail_fast ship container cable_car subway aircraft wheelchair scooter drone" speed="13.89" length="2.34" shape="60.99,138.96 60.23,138.89 59.71,138.83 59.19,138.75 58.43,138.60"/>
        <lane id=":284056480_1_1" index="1" disallow="tram rail_urban rail rail_electric rail_fast ship container cable_car subway aircraft wheelchair scooter drone" speed="13.89" length="2.34" shape="61.29,135.78 60.67,135.72 60.25,135.68 59.83,135.61 59.22,135.50"/>
    </edge>
    <edge id=":3161459540_0" function="internal">
        <lane id=":3161459540_0_0" index="0" disallow="tram rail_urban rail rail_electric rail_fast ship container cable_car subway aircraft wheelchair scooter drone" speed="12.77" length="9.36" shape="105.85,112.55 107.66,112.45 108.84,112.00 109.97,111.28 111.62,110.38"/>
        <lane id=":3161459540_0_1" index="1" disallow="tram rail_urban rail rail_electric rail_fast ship container cable_car subway aircraft wheelchair scooter drone" speed="13.89" length="9.36" shape="105.70,115.75 107.96,115.66 109.46,115.18 110.90,114.37 112.96,113.28"/>
        <lane id=":3161459540_0_2" index="2" disallow="tram rail_urban rail rail_electric rail_fast ship container cable_car subway aircraft wheelchair scooter drone" speed="13.89" length="9.36" shape="105.56,118.94 108.27,118.87 110.09,118.37 111.83,117.46 114.31,116.18"/>
        <lane id=":3161459540_0_3" index="3" disallow="tram rail_urban rail rail_electric rail_fast ship container cable_car subway aircraft wheelchair scooter drone" speed="13.89" length="9.36" shape="105.41,122.14 108.58,122.08 110.71,121.55 112.76,120.55 115.65,119.09"/>
        <lane id=":3161459540_0_4" index="4" disallow="tram rail_urban rail rail_electric rail_fast ship container cable_car subway aircraft wheelchair scooter drone" speed="13.89" length="9.36" shape="105.26,125.34 108.89,125.29 111.34,124.73 113.68,123.64 117.00,121.99"/>
    </edge>
    <edge id=":3161459541_0" function="internal">
        <lane id=":3161459541_0_0" index="0" disallow="tram rail_urban rail rail_electric rail_fast ship container cable_car subway aircraft wheelchair scooter drone" speed="13.89" length="12.04" shape="140.15,117.34 152.14,117.89"/>
        <lane id=":3161459541_0_1" index="1" disallow="tram rail_urban rail rail_electric rail_fast ship container cable_car subway aircraft wheelchair scooter drone" speed="13.89" length="12.04" shape="139.97,120.53 152.00,121.09"/>
        <lane id=":3161459541_0_2" index="2" disallow="tram rail_urban rail rail_electric rail_fast ship container cable_car subway aircraft wheelchair scooter drone" speed="13.89" length="12.04" shape="139.78,123.73 151.85,124.29"/>
    </edge>
    <edge id=":3161459542_0" function="internal">
        <lane id=":3161459542_0_0" index="0" disallow="tram rail_urban rail rail_electric rail_fast ship container cable_car subway aircraft wheelchair scooter drone" speed="13.89" length="5.35" shape="116.34,143.57 114.80,143.77 113.80,144.29 112.79,144.80 111.25,144.99"/>
        <lane id=":3161459542_0_1" index="1" disallow="tram rail_urban rail rail_electric rail_fast ship container cable_car subway aircraft wheelchair scooter drone" speed="13.89" length="5.35" shape="116.45,140.38 114.92,140.57 113.91,141.09 112.91,141.60 111.38,141.79"/>
        <lane id=":3161459542_0_2" index="2" disallow="tram rail_urban rail rail_electric rail_fast ship container cable_car subway aircraft wheelchair scooter drone" speed="13.89" length="5.35" shape="116.56,137.18 115.03,137.38 114.03,137.89 113.03,138.40 111.50,138.60"/>
    </edge>
    <edge id=":3161459543_0" function="internal">
        <lane id=":3161459543_0_0" index="0" disallow="tram rail_urban rail rail_electric rail_fast ship container cable_car subway aircraft wheelchair scooter drone" speed="13.89" length="5.48" shape="157.37,146.56 151.95,146.35"/>
        <lane id=":3161459543_0_1" index="1" disallow="tram rail_urban rail rail_electric rail_fast ship container cable_car subway aircraft wheelchair scooter drone" speed="13.89" length="5.48" shape="157.51,143.36 152.05,143.15"/>
        <lane id=":3161459543_0_2" index="2" disallow="tram rail_urban rail rail_electric rail_fast ship container cable_car subway aircraft wheelchair scooter drone" speed="13.89" length="5.48" shape="157.66,140.16 152.16,139.95"/>
        <lane id=":3161459543_0_3" index="3" disallow="tram rail_urban rail rail_electric rail_fast ship container cable_car subway aircraft wheelchair scooter drone" speed="13.89" length="5.48" shape="157.80,136.97 152.26,136.75"/>
    </edge>
    <edge id=":4040326911_0" function="internal">
        <lane id=":4040326911_0_0" index="0" disallow="tram rail_urban rail rail_electric rail_fast ship container cable_car subway aircraft wheelchair scooter drone" speed="11.11" length="4.16" shape="250.11,171.92 251.13,171.24 251.87,170.84 252.65,170.51 253.78,169.99"/>
    </edge>
    <edge id=":4040326911_1" function="internal">
        <lane id=":4040326911_1_0" index="0" allow="pedestrian delivery bicycle" speed="8.33" length="4.06" shape="251.98,174.52 252.99,173.86 253.74,173.52 254.52,173.24 255.64,172.78"/>
    </edge>
    <edge id=":4444815317_0" function="internal">